
Due to MODULEPATH changes, the following have been reloaded:
  1) zlib/1.2.11

--------------------------------------------------------------------------------
 Model Input Parameters:  ROMS/TOMS version 3.9  
                          Thursday - August 31, 2023 -  1:48:26 PM
--------------------------------------------------------------------------------

 SHELFSTRAT

 Operating system  : Linux
 CPU/hardware      : x86_64
 Compiler system   : ifort
 Compiler command  : /sw/eb/sw/impi/2019.9.304-iccifort-2020.4.304/intel64/bin/mpiifort
 Compiler flags    : -fp-model precise -ip -O3 -traceback 
 OCN Communicator  : 1140850688,  PET size = 64

 Input Script      : 

 SVN Root URL     : 
 SVN Revision     : 

 Local Root       : /scratch/user/dylan.schlichting/COAWST
 Header Dir       : /scratch/user/dylan.schlichting/COAWST/Projects/shelfstrat/runs/lmd_tests
 Header file      : shelfstrat.h
 Analytical Dir   : /scratch/user/dylan.schlichting/COAWST/Projects/shelfstrat/project/Functionals

 Resolution, Grid 01: 192x192x30,  Parallel Nodes: 64,  Tiling: 16x4


 Physical Parameters, Grid: 01
 =============================

      43200  ntimes            Number of timesteps for 3-D equations.
     30.000  dt                Timestep size (s) for 3-D equations.
         30  ndtfast           Number of timesteps for 2-D equations between
                                 each 3D timestep.
          1  ERstr             Starting ensemble/perturbation run number.
          1  ERend             Ending ensemble/perturbation run number.
          0  nrrec             Number of restart records to read from disk.
          F  LcycleRST         Switch to recycle time-records in restart file.
          0  nRST              Number of timesteps between the writing of data
                                 into restart fields.
         50  ninfo             Number of timesteps between print of information
                                 to standard output.
          T  ldefout           Switch to create a new output NetCDF file(s).
          0  nHIS              Number of timesteps between the writing fields
                                 into history file.
          0  nQCK              Number of timesteps between the writing fields
                                 into quicksave file.
          1  ntsAVG            Starting timestep for the accumulation of output
                                 time-averaged data.
        120  nAVG              Number of timesteps between the writing of
                                 time-averaged data into averages file.
          F  LuvSponge         Turning OFF sponge on horizontal momentum.
          F  LtracerSponge(01) Turning OFF sponge on tracer 01: temp
          F  LtracerSponge(02) Turning OFF sponge on tracer 02: salt
          F  LtracerSponge(03) Turning OFF sponge on tracer 03: dye_01
          F  LtracerSponge(04) Turning OFF sponge on tracer 04: dye_02
          F  LtracerSponge(05) Turning OFF sponge on tracer 05: dye_03
 5.0000E-06  Akt_bak(01)       Background vertical mixing coefficient (m2/s)
                                 for tracer 01: temp
 5.0000E-06  Akt_bak(02)       Background vertical mixing coefficient (m2/s)
                                 for tracer 02: salt
 5.0000E-06  Akt_bak(03)       Background vertical mixing coefficient (m2/s)
                                 for tracer 03: dye_01
 5.0000E-06  Akt_bak(04)       Background vertical mixing coefficient (m2/s)
                                 for tracer 04: dye_02
 5.0000E-06  Akt_bak(05)       Background vertical mixing coefficient (m2/s)
                                 for tracer 05: dye_03
 5.0000E-05  Akv_bak           Background vertical mixing coefficient (m2/s)
                                 for momentum.
 3.0000E-04  rdrg              Linear bottom drag coefficient (m/s).
 3.0000E-03  rdrg2             Quadratic bottom drag coefficient.
 3.0000E-03  Zob               Bottom roughness (m).
          1  lmd_Jwt           Jerlov water type.
          2  Vtransform        S-coordinate transformation equation.
          4  Vstretching       S-coordinate stretching function.
 5.0000E+00  theta_s           S-coordinate surface control parameter.
 4.0000E-01  theta_b           S-coordinate bottom  control parameter.
      5.000  Tcline            S-coordinate surface/bottom layer width (m) used
                                 in vertical coordinate stretching.
   1025.000  rho0              Mean density (kg/m3) for Boussinesq approximation.
      5.000  dstart            Time-stamp assigned to model initialization (days).
       0.00  time_ref          Reference time for units attribute (yyyymmdd.dd)
 0.0000E+00  Tnudg(01)         Nudging/relaxation time scale (days)
                                 for tracer 01: temp
 0.0000E+00  Tnudg(02)         Nudging/relaxation time scale (days)
                                 for tracer 02: salt
 0.0000E+00  Tnudg(03)         Nudging/relaxation time scale (days)
                                 for tracer 03: dye_01
 0.0000E+00  Tnudg(04)         Nudging/relaxation time scale (days)
                                 for tracer 04: dye_02
 0.0000E+00  Tnudg(05)         Nudging/relaxation time scale (days)
                                 for tracer 05: dye_03
 0.0000E+00  Znudg             Nudging/relaxation time scale (days)
                                 for free-surface.
 0.0000E+00  M2nudg            Nudging/relaxation time scale (days)
                                 for 2D momentum.
 0.0000E+00  M3nudg            Nudging/relaxation time scale (days)
                                 for 3D momentum.
 0.0000E+00  obcfac            Factor between passive and active
                                 open boundary conditions.
          F  VolCons(1)        NLM western  edge boundary volume conservation.
          F  VolCons(2)        NLM southern edge boundary volume conservation.
          F  VolCons(3)        NLM eastern  edge boundary volume conservation.
          F  VolCons(4)        NLM northern edge boundary volume conservation.
     25.000  T0                Background potential temperature (C) constant.
     35.000  S0                Background salinity (PSU) constant.
   1027.000  R0                Background density (kg/m3) used in linear Equation
                                 of State.
 1.7000E-04  Tcoef             Thermal expansion coefficient (1/Celsius).
 7.6000E-04  Scoef             Saline contraction coefficient (1/PSU).
     -1.000  gamma2            Slipperiness variable: free-slip (1.0) or 
                                                      no-slip (-1.0).
          F  LuvSrc            Turning OFF momentum point Sources/Sinks.
          F  LwSrc             Turning OFF volume influx point Sources/Sinks.
          F  LtracerSrc(01)    Turning OFF point Sources/Sinks on tracer 01: temp
          F  LtracerSrc(02)    Turning OFF point Sources/Sinks on tracer 02: salt
          F  LtracerSrc(03)    Turning OFF  point Sources/Sinks on tracer 03: dye_01
          F  LtracerSrc(04)    Turning OFF  point Sources/Sinks on tracer 04: dye_02
          F  LtracerSrc(05)    Turning OFF  point Sources/Sinks on tracer 05: dye_03
          F  LsshCLM           Turning OFF processing of SSH climatology.
          T  Lm2CLM            Turning ON  processing of 2D momentum climatology.
          T  Lm3CLM            Turning ON  processing of 3D momentum climatology.
          F  LtracerCLM(01)    Turning OFF processing of climatology tracer 01: temp
          F  LtracerCLM(02)    Turning OFF processing of climatology tracer 02: salt
          F  LtracerCLM(03)    Turning OFF processing of climatology tracer 03: dye_01
          F  LtracerCLM(04)    Turning OFF processing of climatology tracer 04: dye_02
          F  LtracerCLM(05)    Turning OFF processing of climatology tracer 05: dye_03
          T  LnudgeM2CLM       Turning ON  nudging of 2D momentum climatology.
          T  LnudgeM3CLM       Turning ON  nudging of 3D momentum climatology.
          F  LnudgeTCLM(01)    Turning OFF nudging of climatology tracer 01: temp
          F  LnudgeTCLM(02)    Turning OFF nudging of climatology tracer 02: salt
          F  LnudgeTCLM(03)    Turning OFF nudging of climatology tracer 03: dye_01
          F  LnudgeTCLM(04)    Turning OFF nudging of climatology tracer 04: dye_02
          F  LnudgeTCLM(05)    Turning OFF nudging of climatology tracer 05: dye_03

          T  Aout(idFsur)      Write out averaged free-surface.
          T  Aout(idUvel)      Write out averaged 3D U-momentum component.
          T  Aout(idVvel)      Write out averaged 3D V-momentum component.
          T  Aout(idWvel)      Write out averaged W-momentum component.
          T  Aout(idTvar)      Write out averaged tracer 01: temp
          T  Aout(idTvar)      Write out averaged tracer 02: salt
          T  Aout(idUsms)      Write out averaged surface U-momentum stress.
          T  Aout(idVsms)      Write out averaged surface V-momentum stress.
          T  Aout(inert)       Write out  averaged inert passive tracer 03: dye_03

 Output/Input Files:

               Output Restart File:  shelf_dx_500_mpdata_uwind_osc_1_rst.nc
              Output Averages File:  shelf_dx_500_mpdata_uwind_osc_1_avg.nc
                   Input Grid File:  /scratch/user/dylan.schlichting/COAWST/Projects/shelfstrat/runs/tadvection_experiments/mpdata/shelf_ho_5_dx_500_f_43N_grd.nc
      Input Nonlinear Initial File:  /scratch/user/dylan.schlichting/COAWST/Projects/shelfstrat/runs/tadvection_experiments/mpdata/shelf_ho_5_dx_500_f_43N_ini.nc
             Input Forcing File 01:  /scratch/user/dylan.schlichting/COAWST/Projects/shelfstrat/runs/lmd_tests/shelf_dx_500_uwind_zeropoint1pa_frc.nc
  ROMS I/O variables Metadata File:  /scratch/user/dylan.schlichting/COAWST/ROMS/External/varinfo.dat
            Input/Output USER File:  /scratch/user/dylan.schlichting/COAWST/ROMS/External/MyFile.dat

 Generic User Parameters:

 2.5000E-04  user(01)          User parameter 01.

 Tile partition information for Grid 01:  192x192x30  tiling: 16x4

     tile     Istr     Iend     Jstr     Jend     Npts

        0        1       12        1       48    17280
        1       13       24        1       48    17280
        2       25       36        1       48    17280
        3       37       48        1       48    17280
        4       49       60        1       48    17280
        5       61       72        1       48    17280
        6       73       84        1       48    17280
        7       85       96        1       48    17280
        8       97      108        1       48    17280
        9      109      120        1       48    17280
       10      121      132        1       48    17280
       11      133      144        1       48    17280
       12      145      156        1       48    17280
       13      157      168        1       48    17280
       14      169      180        1       48    17280
       15      181      192        1       48    17280
       16        1       12       49       96    17280
       17       13       24       49       96    17280
       18       25       36       49       96    17280
       19       37       48       49       96    17280
       20       49       60       49       96    17280
       21       61       72       49       96    17280
       22       73       84       49       96    17280
       23       85       96       49       96    17280
       24       97      108       49       96    17280
       25      109      120       49       96    17280
       26      121      132       49       96    17280
       27      133      144       49       96    17280
       28      145      156       49       96    17280
       29      157      168       49       96    17280
       30      169      180       49       96    17280
       31      181      192       49       96    17280
       32        1       12       97      144    17280
       33       13       24       97      144    17280
       34       25       36       97      144    17280
       35       37       48       97      144    17280
       36       49       60       97      144    17280
       37       61       72       97      144    17280
       38       73       84       97      144    17280
       39       85       96       97      144    17280
       40       97      108       97      144    17280
       41      109      120       97      144    17280
       42      121      132       97      144    17280
       43      133      144       97      144    17280
       44      145      156       97      144    17280
       45      157      168       97      144    17280
       46      169      180       97      144    17280
       47      181      192       97      144    17280
       48        1       12      145      192    17280
       49       13       24      145      192    17280
       50       25       36      145      192    17280
       51       37       48      145      192    17280
       52       49       60      145      192    17280
       53       61       72      145      192    17280
       54       73       84      145      192    17280
       55       85       96      145      192    17280
       56       97      108      145      192    17280
       57      109      120      145      192    17280
       58      121      132      145      192    17280
       59      133      144      145      192    17280
       60      145      156      145      192    17280
       61      157      168      145      192    17280
       62      169      180      145      192    17280
       63      181      192      145      192    17280

 Tile minimum and maximum fractional coordinates for Grid 01:
   (interior points only)

     tile     Xmin     Xmax     Ymin     Ymax     grid

        0     0.50    12.50     0.50    48.50  RHO-points
        1    12.50    24.50     0.50    48.50  RHO-points
        2    24.50    36.50     0.50    48.50  RHO-points
        3    36.50    48.50     0.50    48.50  RHO-points
        4    48.50    60.50     0.50    48.50  RHO-points
        5    60.50    72.50     0.50    48.50  RHO-points
        6    72.50    84.50     0.50    48.50  RHO-points
        7    84.50    96.50     0.50    48.50  RHO-points
        8    96.50   108.50     0.50    48.50  RHO-points
        9   108.50   120.50     0.50    48.50  RHO-points
       10   120.50   132.50     0.50    48.50  RHO-points
       11   132.50   144.50     0.50    48.50  RHO-points
       12   144.50   156.50     0.50    48.50  RHO-points
       13   156.50   168.50     0.50    48.50  RHO-points
       14   168.50   180.50     0.50    48.50  RHO-points
       15   180.50   192.50     0.50    48.50  RHO-points
       16     0.50    12.50    48.50    96.50  RHO-points
       17    12.50    24.50    48.50    96.50  RHO-points
       18    24.50    36.50    48.50    96.50  RHO-points
       19    36.50    48.50    48.50    96.50  RHO-points
       20    48.50    60.50    48.50    96.50  RHO-points
       21    60.50    72.50    48.50    96.50  RHO-points
       22    72.50    84.50    48.50    96.50  RHO-points
       23    84.50    96.50    48.50    96.50  RHO-points
       24    96.50   108.50    48.50    96.50  RHO-points
       25   108.50   120.50    48.50    96.50  RHO-points
       26   120.50   132.50    48.50    96.50  RHO-points
       27   132.50   144.50    48.50    96.50  RHO-points
       28   144.50   156.50    48.50    96.50  RHO-points
       29   156.50   168.50    48.50    96.50  RHO-points
       30   168.50   180.50    48.50    96.50  RHO-points
       31   180.50   192.50    48.50    96.50  RHO-points
       32     0.50    12.50    96.50   144.50  RHO-points
       33    12.50    24.50    96.50   144.50  RHO-points
       34    24.50    36.50    96.50   144.50  RHO-points
       35    36.50    48.50    96.50   144.50  RHO-points
       36    48.50    60.50    96.50   144.50  RHO-points
       37    60.50    72.50    96.50   144.50  RHO-points
       38    72.50    84.50    96.50   144.50  RHO-points
       39    84.50    96.50    96.50   144.50  RHO-points
       40    96.50   108.50    96.50   144.50  RHO-points
       41   108.50   120.50    96.50   144.50  RHO-points
       42   120.50   132.50    96.50   144.50  RHO-points
       43   132.50   144.50    96.50   144.50  RHO-points
       44   144.50   156.50    96.50   144.50  RHO-points
       45   156.50   168.50    96.50   144.50  RHO-points
       46   168.50   180.50    96.50   144.50  RHO-points
       47   180.50   192.50    96.50   144.50  RHO-points
       48     0.50    12.50   144.50   192.50  RHO-points
       49    12.50    24.50   144.50   192.50  RHO-points
       50    24.50    36.50   144.50   192.50  RHO-points
       51    36.50    48.50   144.50   192.50  RHO-points
       52    48.50    60.50   144.50   192.50  RHO-points
       53    60.50    72.50   144.50   192.50  RHO-points
       54    72.50    84.50   144.50   192.50  RHO-points
       55    84.50    96.50   144.50   192.50  RHO-points
       56    96.50   108.50   144.50   192.50  RHO-points
       57   108.50   120.50   144.50   192.50  RHO-points
       58   120.50   132.50   144.50   192.50  RHO-points
       59   132.50   144.50   144.50   192.50  RHO-points
       60   144.50   156.50   144.50   192.50  RHO-points
       61   156.50   168.50   144.50   192.50  RHO-points
       62   168.50   180.50   144.50   192.50  RHO-points
       63   180.50   192.50   144.50   192.50  RHO-points

        0     1.00    12.50     0.50    48.50    U-points
        1    12.50    24.50     0.50    48.50    U-points
        2    24.50    36.50     0.50    48.50    U-points
        3    36.50    48.50     0.50    48.50    U-points
        4    48.50    60.50     0.50    48.50    U-points
        5    60.50    72.50     0.50    48.50    U-points
        6    72.50    84.50     0.50    48.50    U-points
        7    84.50    96.50     0.50    48.50    U-points
        8    96.50   108.50     0.50    48.50    U-points
        9   108.50   120.50     0.50    48.50    U-points
       10   120.50   132.50     0.50    48.50    U-points
       11   132.50   144.50     0.50    48.50    U-points
       12   144.50   156.50     0.50    48.50    U-points
       13   156.50   168.50     0.50    48.50    U-points
       14   168.50   180.50     0.50    48.50    U-points
       15   180.50   192.00     0.50    48.50    U-points
       16     1.00    12.50    48.50    96.50    U-points
       17    12.50    24.50    48.50    96.50    U-points
       18    24.50    36.50    48.50    96.50    U-points
       19    36.50    48.50    48.50    96.50    U-points
       20    48.50    60.50    48.50    96.50    U-points
       21    60.50    72.50    48.50    96.50    U-points
       22    72.50    84.50    48.50    96.50    U-points
       23    84.50    96.50    48.50    96.50    U-points
       24    96.50   108.50    48.50    96.50    U-points
       25   108.50   120.50    48.50    96.50    U-points
       26   120.50   132.50    48.50    96.50    U-points
       27   132.50   144.50    48.50    96.50    U-points
       28   144.50   156.50    48.50    96.50    U-points
       29   156.50   168.50    48.50    96.50    U-points
       30   168.50   180.50    48.50    96.50    U-points
       31   180.50   192.00    48.50    96.50    U-points
       32     1.00    12.50    96.50   144.50    U-points
       33    12.50    24.50    96.50   144.50    U-points
       34    24.50    36.50    96.50   144.50    U-points
       35    36.50    48.50    96.50   144.50    U-points
       36    48.50    60.50    96.50   144.50    U-points
       37    60.50    72.50    96.50   144.50    U-points
       38    72.50    84.50    96.50   144.50    U-points
       39    84.50    96.50    96.50   144.50    U-points
       40    96.50   108.50    96.50   144.50    U-points
       41   108.50   120.50    96.50   144.50    U-points
       42   120.50   132.50    96.50   144.50    U-points
       43   132.50   144.50    96.50   144.50    U-points
       44   144.50   156.50    96.50   144.50    U-points
       45   156.50   168.50    96.50   144.50    U-points
       46   168.50   180.50    96.50   144.50    U-points
       47   180.50   192.00    96.50   144.50    U-points
       48     1.00    12.50   144.50   192.50    U-points
       49    12.50    24.50   144.50   192.50    U-points
       50    24.50    36.50   144.50   192.50    U-points
       51    36.50    48.50   144.50   192.50    U-points
       52    48.50    60.50   144.50   192.50    U-points
       53    60.50    72.50   144.50   192.50    U-points
       54    72.50    84.50   144.50   192.50    U-points
       55    84.50    96.50   144.50   192.50    U-points
       56    96.50   108.50   144.50   192.50    U-points
       57   108.50   120.50   144.50   192.50    U-points
       58   120.50   132.50   144.50   192.50    U-points
       59   132.50   144.50   144.50   192.50    U-points
       60   144.50   156.50   144.50   192.50    U-points
       61   156.50   168.50   144.50   192.50    U-points
       62   168.50   180.50   144.50   192.50    U-points
       63   180.50   192.00   144.50   192.50    U-points

        0     0.50    12.50     1.00    48.50    V-points
        1    12.50    24.50     1.00    48.50    V-points
        2    24.50    36.50     1.00    48.50    V-points
        3    36.50    48.50     1.00    48.50    V-points
        4    48.50    60.50     1.00    48.50    V-points
        5    60.50    72.50     1.00    48.50    V-points
        6    72.50    84.50     1.00    48.50    V-points
        7    84.50    96.50     1.00    48.50    V-points
        8    96.50   108.50     1.00    48.50    V-points
        9   108.50   120.50     1.00    48.50    V-points
       10   120.50   132.50     1.00    48.50    V-points
       11   132.50   144.50     1.00    48.50    V-points
       12   144.50   156.50     1.00    48.50    V-points
       13   156.50   168.50     1.00    48.50    V-points
       14   168.50   180.50     1.00    48.50    V-points
       15   180.50   192.50     1.00    48.50    V-points
       16     0.50    12.50    48.50    96.50    V-points
       17    12.50    24.50    48.50    96.50    V-points
       18    24.50    36.50    48.50    96.50    V-points
       19    36.50    48.50    48.50    96.50    V-points
       20    48.50    60.50    48.50    96.50    V-points
       21    60.50    72.50    48.50    96.50    V-points
       22    72.50    84.50    48.50    96.50    V-points
       23    84.50    96.50    48.50    96.50    V-points
       24    96.50   108.50    48.50    96.50    V-points
       25   108.50   120.50    48.50    96.50    V-points
       26   120.50   132.50    48.50    96.50    V-points
       27   132.50   144.50    48.50    96.50    V-points
       28   144.50   156.50    48.50    96.50    V-points
       29   156.50   168.50    48.50    96.50    V-points
       30   168.50   180.50    48.50    96.50    V-points
       31   180.50   192.50    48.50    96.50    V-points
       32     0.50    12.50    96.50   144.50    V-points
       33    12.50    24.50    96.50   144.50    V-points
       34    24.50    36.50    96.50   144.50    V-points
       35    36.50    48.50    96.50   144.50    V-points
       36    48.50    60.50    96.50   144.50    V-points
       37    60.50    72.50    96.50   144.50    V-points
       38    72.50    84.50    96.50   144.50    V-points
       39    84.50    96.50    96.50   144.50    V-points
       40    96.50   108.50    96.50   144.50    V-points
       41   108.50   120.50    96.50   144.50    V-points
       42   120.50   132.50    96.50   144.50    V-points
       43   132.50   144.50    96.50   144.50    V-points
       44   144.50   156.50    96.50   144.50    V-points
       45   156.50   168.50    96.50   144.50    V-points
       46   168.50   180.50    96.50   144.50    V-points
       47   180.50   192.50    96.50   144.50    V-points
       48     0.50    12.50   144.50   192.00    V-points
       49    12.50    24.50   144.50   192.00    V-points
       50    24.50    36.50   144.50   192.00    V-points
       51    36.50    48.50   144.50   192.00    V-points
       52    48.50    60.50   144.50   192.00    V-points
       53    60.50    72.50   144.50   192.00    V-points
       54    72.50    84.50   144.50   192.00    V-points
       55    84.50    96.50   144.50   192.00    V-points
       56    96.50   108.50   144.50   192.00    V-points
       57   108.50   120.50   144.50   192.00    V-points
       58   120.50   132.50   144.50   192.00    V-points
       59   132.50   144.50   144.50   192.00    V-points
       60   144.50   156.50   144.50   192.00    V-points
       61   156.50   168.50   144.50   192.00    V-points
       62   168.50   180.50   144.50   192.00    V-points
       63   180.50   192.50   144.50   192.00    V-points

 Maximum halo size in XI and ETA directions:

               HaloSizeI(1) =     108
               HaloSizeJ(1) =     248
                TileSide(1) =      56
                TileSize(1) =    1176


 Tracer Advection Scheme: NLM
 ========================

 Variable               Grid  Horizontal         Vertical
 ---------              ----  ------------       ------------

 temp                     1   MPDATA             MPDATA

 salt                     1   MPDATA             MPDATA

 dye_01                   1   MPDATA             MPDATA

 dye_02                   1   MPDATA             MPDATA

 dye_03                   1   MPDATA             MPDATA

 Akima4     Fourth-order Akima advection
 Centered2  Second-order centered differences advection
 Centered4  Fourth-order centered differences advection
 HSIMT      Third High-order Spatial Inteporlation at Middle Time Advection with TVD limiter
 MPDATA     Multidimensional Positive Definite Advection Algorithm, recursive method
 Splines    Conservative Parabolic Splines Reconstruction Advection (only vertical; not recommended)
 Split_U3   Split third-order Upstream Advection
 Upstream3  Third-order Upstream-biased Advection (only horizontal)


 Lateral Boundary Conditions: NLM
 ============================

 Variable               Grid  West Edge    South Edge   East Edge    North Edge
 ---------              ----  ----------   ----------   ----------   ----------

 zeta                     1   Periodic     Closed       Periodic     Chapman Imp

 ubar                     1   Periodic     Closed       Periodic     Flather

 vbar                     1   Periodic     Closed       Periodic     Flather

 u                        1   Periodic     Closed       Periodic     Gradient

 v                        1   Periodic     Closed       Periodic     Gradient

 temp                     1   Periodic     Closed       Periodic     Gradient

 salt                     1   Periodic     Closed       Periodic     Gradient

 dye_01                   1   Periodic     Closed       Periodic     Gradient

 dye_02                   1   Periodic     Closed       Periodic     Gradient

 dye_03                   1   Periodic     Closed       Periodic     Gradient

 Activated C-preprocessing Options:

 SHELFSTRAT               SHELFSTRAT
 ANA_BPFLUX               Analytical bottom passive tracers fluxes
 ANA_BSFLUX               Analytical kinematic bottom salinity flux
 ANA_BTFLUX               Analytical kinematic bottom temperature flux
 ANA_FSOBC                Analytical free-surface boundary conditions
 ANA_M2CLIMA              Analytical 2D momentum climatology
 ANA_M2OBC                Analytical 2D momentum boundary conditions
 ANA_M3CLIMA              Analytical 3D momentum climatology
 ANA_NUDGCOEF             Analytical spatially varying nudging time-scales
 ANA_PASSIVE              Analytical initial conditions for inert tracers
 ANA_SPFLUX               Analytical surface passive tracer fluxes
 ANA_SSFLUX               Analytical kinematic surface salinity flux
 ANA_STFLUX               Analytical kinematic surface temperature flux
 ASSUMED_SHAPE            Using assumed-shape arrays
 AVERAGES                 Writing out time-averaged nonlinear model fields
 !BOUNDARY_ALLGATHER      Using mpi_allreduce in mp_boundary routine
 !COLLECT_ALL...          Using mpi_isend/mpi_recv in mp_collect routine
 DOUBLE_PRECISION         Double precision arithmetic numerical kernel.
 LMD_BKPP                 KPP bottom boundary layer mixing
 LMD_CONVEC               LMD convective mixing due to shear instability
 LMD_MIXING               Large/McWilliams/Doney interior mixing
 LMD_NONLOCAL             LMD convective nonlocal transport
 LMD_RIMIX                LMD diffusivity due to shear instability
 LMD_SHAPIRO              Shapiro filtering boundary layer depth
 LMD_SKPP                 KPP surface boundary layer mixing
 MPI                      MPI distributed-memory configuration
 NONLINEAR                Nonlinear Model
 !NONLIN_EOS              Linear Equation of State for seawater
 POWER_LAW                Power-law shape time-averaging barotropic filter
 PRSGRD31                 Standard density Jacobian formulation (Song, 1998)
 PROFILE                  Time profiling activated
 REDUCE_ALLREDUCE         Using mpi_allreduce in mp_reduce routine
 RHO_SURF                 Include difference between rho0 and surface density
 !RST_SINGLE              Double precision fields in restart NetCDF file
 SALINITY                 Using salinity
 SOLVE3D                  Solving 3D Primitive Equations
 SPLINES_VDIFF            Parabolic Spline Reconstruction for Vertical Diffusion
 SPLINES_VVISC            Parabolic Spline Reconstruction for Vertical Viscosity
 T_PASSIVE                Advecting and diffusing inert passive tracer
 UV_ADV                   Advection of momentum
 UV_COR                   Coriolis term
 UV_U3HADVECTION          Third-order upstream horizontal advection of 3D momentum
 UV_C4VADVECTION          Fourth-order centered vertical advection of momentum
 UV_LOGDRAG               Logarithmic bottom stress
 VAR_RHO_2D               Variable density barotropic mode

 Process Information:

 Node #    0 (pid=   11473) is active.
 Node #   19 (pid=   11492) is active.
 Node #   31 (pid=   11504) is active.
 Node #    2 (pid=   11475) is active.
 Node #    4 (pid=   11477) is active.
 Node #    5 (pid=   11478) is active.
 Node #    6 (pid=   11479) is active.
 Node #   10 (pid=   11483) is active.
 Node #   11 (pid=   11484) is active.
 Node #   17 (pid=   11490) is active.
 Node #   25 (pid=   11498) is active.
 Node #    1 (pid=   11474) is active.
 Node #    3 (pid=   11476) is active.
 Node #    8 (pid=   11481) is active.
 Node #    9 (pid=   11482) is active.
 Node #   12 (pid=   11485) is active.
 Node #   13 (pid=   11486) is active.
 Node #   14 (pid=   11487) is active.
 Node #   15 (pid=   11488) is active.
 Node #   16 (pid=   11489) is active.
 Node #   18 (pid=   11491) is active.
 Node #   20 (pid=   11493) is active.
 Node #   21 (pid=   11494) is active.
 Node #   22 (pid=   11495) is active.
 Node #   24 (pid=   11497) is active.
 Node #   26 (pid=   11499) is active.
 Node #   27 (pid=   11500) is active.
 Node #   28 (pid=   11501) is active.
 Node #   29 (pid=   11502) is active.
 Node #   30 (pid=   11503) is active.
 Node #   23 (pid=   11496) is active.
 Node #   32 (pid=   63613) is active.
 Node #    7 (pid=   11480) is active.
 Node #   41 (pid=   63622) is active.
 Node #   42 (pid=   63623) is active.
 Node #   43 (pid=   63624) is active.
 Node #   46 (pid=   63627) is active.
 Node #   33 (pid=   63614) is active.
 Node #   34 (pid=   63615) is active.
 Node #   35 (pid=   63616) is active.
 Node #   36 (pid=   63617) is active.
 Node #   37 (pid=   63618) is active.
 Node #   38 (pid=   63619) is active.
 Node #   39 (pid=   63620) is active.
 Node #   40 (pid=   63621) is active.
 Node #   44 (pid=   63625) is active.
 Node #   45 (pid=   63626) is active.
 Node #   47 (pid=   63628) is active.
 Node #   48 (pid=   63629) is active.
 Node #   49 (pid=   63630) is active.
 Node #   50 (pid=   63631) is active.
 Node #   51 (pid=   63632) is active.
 Node #   52 (pid=   63633) is active.
 Node #   53 (pid=   63634) is active.
 Node #   54 (pid=   63635) is active.
 Node #   55 (pid=   63636) is active.
 Node #   56 (pid=   63637) is active.
 Node #   57 (pid=   63638) is active.
 Node #   58 (pid=   63639) is active.
 Node #   59 (pid=   63640) is active.
 Node #   60 (pid=   63641) is active.
 Node #   61 (pid=   63642) is active.
 Node #   62 (pid=   63643) is active.
 Node #   63 (pid=   63644) is active.

 INITIAL: Configuring and initializing forward nonlinear model ...
 *******

    GET_GRID    - x-location of RHO-points: x-rho
                   (Grid = 01, File: /scratch/user/dylan.schlichting/COAWST/Projects/shelfstrat/runs/tadvection_experiments/mpdata/shelf_ho_5_dx_500_f_43N_grd.nc)
                   (Min =  2.50000000E+02 Max =  9.67500000E+04)
    GET_GRID    - y-location of RHO-points: y_rho
                   (Grid = 01, File: /scratch/user/dylan.schlichting/COAWST/Projects/shelfstrat/runs/tadvection_experiments/mpdata/shelf_ho_5_dx_500_f_43N_grd.nc)
                   (Min =  2.50000000E+02 Max =  9.67500000E+04)
    GET_GRID    - x-location of PSI-points: x_psi
                   (Grid = 01, File: /scratch/user/dylan.schlichting/COAWST/Projects/shelfstrat/runs/tadvection_experiments/mpdata/shelf_ho_5_dx_500_f_43N_grd.nc)
                   (Min =  5.00000000E+02 Max =  9.65000000E+04)
    GET_GRID    - y-location of PSI-points: y-psi
                   (Grid = 01, File: /scratch/user/dylan.schlichting/COAWST/Projects/shelfstrat/runs/tadvection_experiments/mpdata/shelf_ho_5_dx_500_f_43N_grd.nc)
                   (Min =  5.00000000E+02 Max =  9.65000000E+04)
    GET_GRID    - x-location of U-points: x_u
                   (Grid = 01, File: /scratch/user/dylan.schlichting/COAWST/Projects/shelfstrat/runs/tadvection_experiments/mpdata/shelf_ho_5_dx_500_f_43N_grd.nc)
                   (Min =  5.00000000E+02 Max =  9.65000000E+04)
    GET_GRID    - y-location of U-points: y_u
                   (Grid = 01, File: /scratch/user/dylan.schlichting/COAWST/Projects/shelfstrat/runs/tadvection_experiments/mpdata/shelf_ho_5_dx_500_f_43N_grd.nc)
                   (Min =  2.50000000E+02 Max =  9.67500000E+04)
    GET_GRID    - x-location of V-points: x_v
                   (Grid = 01, File: /scratch/user/dylan.schlichting/COAWST/Projects/shelfstrat/runs/tadvection_experiments/mpdata/shelf_ho_5_dx_500_f_43N_grd.nc)
                   (Min =  2.50000000E+02 Max =  9.67500000E+04)
    GET_GRID    - y-location of V-points: y_v
                   (Grid = 01, File: /scratch/user/dylan.schlichting/COAWST/Projects/shelfstrat/runs/tadvection_experiments/mpdata/shelf_ho_5_dx_500_f_43N_grd.nc)
                   (Min =  5.00000000E+02 Max =  9.65000000E+04)
    GET_GRID    - reciprocal XI-grid spacing: pm
                   (Grid = 01, File: /scratch/user/dylan.schlichting/COAWST/Projects/shelfstrat/runs/tadvection_experiments/mpdata/shelf_ho_5_dx_500_f_43N_grd.nc)
                   (Min =  2.00000000E-03 Max =  2.00000000E-03)
    GET_GRID    - reciprocal ETA-grid spacing: pn
                   (Grid = 01, File: /scratch/user/dylan.schlichting/COAWST/Projects/shelfstrat/runs/tadvection_experiments/mpdata/shelf_ho_5_dx_500_f_43N_grd.nc)
                   (Min =  2.00000000E-03 Max =  2.00000000E-03)
    GET_GRID    - Coriolis parameter at RHO-points: f
                   (Grid = 01, File: /scratch/user/dylan.schlichting/COAWST/Projects/shelfstrat/runs/tadvection_experiments/mpdata/shelf_ho_5_dx_500_f_43N_grd.nc)
                   (Min =  1.00000000E-04 Max =  1.00000000E-04)
    GET_GRID    - angle between XI-axis and EAST: angler
                   (Grid = 01, File: /scratch/user/dylan.schlichting/COAWST/Projects/shelfstrat/runs/tadvection_experiments/mpdata/shelf_ho_5_dx_500_f_43N_grd.nc)
                   (Min =  0.00000000E+00 Max =  0.00000000E+00)
    GET_GRID    - bathymetry at RHO-points: h
                   (Grid = 01, File: /scratch/user/dylan.schlichting/COAWST/Projects/shelfstrat/runs/tadvection_experiments/mpdata/shelf_ho_5_dx_500_f_43N_grd.nc)
                   (Min =  5.00000000E+00 Max =  1.03695975E+02)

 Vertical S-coordinate System, Grid 01:

 level   S-coord     Cs-curve   Z   at hmin       at hc    half way     at hmax

    30   0.0000000   0.0000000        0.000       0.000       0.000       0.000
    29  -0.0333333  -0.0002307       -0.084      -0.084      -0.164      -0.182
    28  -0.0666667  -0.0009291       -0.169      -0.169      -0.351      -0.410
    27  -0.1000000  -0.0021144       -0.255      -0.255      -0.563      -0.686
    26  -0.1333333  -0.0038189       -0.343      -0.343      -0.801      -1.014
    25  -0.1666667  -0.0060892       -0.432      -0.432      -1.066      -1.397
    24  -0.2000000  -0.0089871       -0.522      -0.522      -1.363      -1.843
    23  -0.2333333  -0.0125913       -0.615      -0.615      -1.695      -2.359
    22  -0.2666667  -0.0169996       -0.709      -0.709      -2.067      -2.954
    21  -0.3000000  -0.0223307       -0.806      -0.806      -2.485      -3.640
    20  -0.3333333  -0.0287278       -0.905      -0.905      -2.956      -4.432
    19  -0.3666667  -0.0363614       -1.008      -1.008      -3.489      -5.346
    18  -0.4000000  -0.0454338       -1.114      -1.114      -4.093      -6.403
    17  -0.4333333  -0.0561830       -1.224      -1.224      -4.780      -7.625
    16  -0.4666667  -0.0688882       -1.339      -1.339      -5.565      -9.041
    15  -0.5000000  -0.0838752       -1.460      -1.460      -6.464     -10.682
    14  -0.5333333  -0.1015226       -1.587      -1.587      -7.495     -12.587
    13  -0.5666667  -0.1222681       -1.722      -1.722      -8.680     -14.798
    12  -0.6000000  -0.1466152       -1.867      -1.867     -10.044     -17.366
    11  -0.6333333  -0.1751391       -2.021      -2.021     -11.616     -20.347
    10  -0.6666667  -0.2084930       -2.188      -2.188     -13.429     -23.805
     9  -0.7000000  -0.2474113       -2.369      -2.369     -15.519     -27.814
     8  -0.7333333  -0.2927113       -2.565      -2.565     -17.926     -32.455
     7  -0.7666667  -0.3452901       -2.780      -2.780     -20.695     -37.815
     6  -0.8000000  -0.4061157       -3.015      -3.015     -23.875     -43.991
     5  -0.8333333  -0.4762095       -3.274      -3.274     -27.516     -51.084
     4  -0.8666667  -0.5566161       -3.558      -3.558     -31.671     -59.198
     3  -0.9000000  -0.6483588       -3.871      -3.871     -36.389     -68.433
     2  -0.9333333  -0.7523753       -4.214      -4.214     -41.719     -78.881
     1  -0.9666667  -0.8694298       -4.590      -4.590     -47.697     -90.620
     0  -1.0000000  -1.0000000       -5.000      -5.000     -54.348    -103.696

 Time Splitting Weights for Grid 01:    ndtfast =  30    nfast =  42
 ==================================

    Primary            Secondary            Accumulated to Current Step

  1-0.0008094437383769 0.0333333333333333-0.0008094437383769 0.0333333333333333
  2-0.0014053566728197 0.0333603147912792-0.0022148004111966 0.0666936481246126
  3-0.0017877524645903 0.0334071600137066-0.0040025528757869 0.1001008081383191
  4-0.0019566842408176 0.0334667517625262-0.0059592371166046 0.1335675599008453
  5-0.0019122901320372 0.0335319745705535-0.0078715272486418 0.1670995344713988
  6-0.0016548570247459 0.0335957175749547-0.0095263842733877 0.2006952520463536
  7-0.0011849025289723 0.0336508794757796-0.0107112868023600 0.2343461315221331
  8-0.0005032751608631 0.0336903762267453-0.0112145619632232 0.2680365077488784
  9 0.0003887272597151 0.0337071520654408-0.0108258347035081 0.3017436598143192
 10 0.0014892209965583 0.0336941944901169-0.0093366137069498 0.3354378543044362
 11 0.0027955815694920 0.0336445537902317-0.0065410321374578 0.3690824080946679
 12 0.0043042707117221 0.0335513677379153-0.0022367614257356 0.4026337758325831
 13 0.0060106451121704 0.0334078920475245 0.0037738836864348 0.4360416678801076
 14 0.0079087469427945 0.0332075372104522 0.0116826306292293 0.4692492050905598
 15 0.0099910761708920 0.0329439123123590 0.0216737068001213 0.5021931174029188
 16 0.0122483446563884 0.0326108764399960 0.0339220514565097 0.5348039938429148
 17 0.0146692120341107 0.0322025982847830 0.0485912634906204 0.5670065921276978
 18 0.0172400033810439 0.0317136245503127 0.0658312668716643 0.5987202166780105
 19 0.0199444086685725 0.0311389577709445 0.0857756755402368 0.6298591744489550
 20 0.0227631639997064 0.0304741441486588 0.1085388395399432 0.6603333185976138
 21 0.0256737146312911 0.0297153720153352 0.1342125541712342 0.6900486906129490
 22 0.0286498597812016 0.0288595815276255 0.1628624139524359 0.7189082721405746
 23 0.0316613792205220 0.0279045862015855 0.1945237931729578 0.7468128583421600
 24 0.0346736416507075 0.0268492068942347 0.2291974348236653 0.7736620652363948
 25 0.0376471948657328 0.0256934188392112 0.2668446296893981 0.7993554840756060
 26 0.0405373376992232 0.0244385123436867 0.3073819673886213 0.8237939964192927
 27 0.0432936737565710 0.0230872677537126 0.3506756411451924 0.8468812641730054
 28 0.0458596469320356 0.0216441452951603 0.3965352880772280 0.8685254094681656
 29 0.0481720587108284 0.0201154903974257 0.4447073467880565 0.8886408998655914
 30 0.0501605672561820 0.0185097551070648 0.4948679140442384 0.9071506549726561
 31 0.0517471682814030 0.0168377361985254 0.5466150823256415 0.9239883911711815
 32 0.0528456577069106 0.0151128305891453 0.5994607400325521 0.9391012217603267
 33 0.0533610761022577 0.0133513086655816 0.6528218161348098 0.9524525304259084
 34 0.0531891349131379 0.0115726061288397 0.7060109510479478 0.9640251365547481
 35 0.0522156244733761 0.0097996349650684 0.7582265755213239 0.9738247715198165
 36 0.0503158038019030 0.0080591141492892 0.8085423793232269 0.9818838856691057
 37 0.0473537721847153 0.0063819206892258 0.8558961515079423 0.9882658063583315
 38 0.0431818225418188 0.0048034616164019 0.8990779740497611 0.9930692679747334
 39 0.0376397765791564 0.0033640675316746 0.9367177506289175 0.9964333355064080
 40 0.0305543017255206 0.0021094083123694 0.9672720523544381 0.9985427438187774
 41 0.0217382098544504 0.0010909315881854 0.9890102622088885 0.9996336754069628
 42 0.0109897377911118 0.0003663245930371 1.0000000000000004 0.9999999999999999

 ndtfast, nfast =   30  42   nfast/ndtfast =  1.40000

 Centers of gravity and integrals (values must be 1, 1, approx 1/2, 1, 1):

    1.000000000000 1.047601458608 0.523800729304 1.000000000000 1.000000000000

 Power filter parameters, Fgamma, gamma =  0.28400   0.18933

 Metrics information for Grid 01:
 ===============================

 Minimum X-grid spacing, DXmin =  5.00000000E-01 km
 Maximum X-grid spacing, DXmax =  5.00000000E-01 km
 Minimum Y-grid spacing, DYmin =  5.00000000E-01 km
 Maximum Y-grid spacing, DYmax =  5.00000000E-01 km
 Minimum Z-grid spacing, DZmin =  8.39100911E-02 m
 Maximum Z-grid spacing, DZmax =  1.30757847E+01 m

 Minimum barotropic Courant Number =  1.98090888E-02
 Maximum barotropic Courant Number =  9.02111972E-02
 Maximum Coriolis   Courant Number =  3.00000000E-03


 NLM: GET_STATE - Reading state initial conditions,                       0001-01-01 00:00:00.00
                   (Grid 01, t = 0.0000, File: shelf_ho_5_dx_500_f_43N_ini.nc, Rec=0001, Index=1)
                - free-surface
                   (Min =  0.00000000E+00 Max =  0.00000000E+00)
                - vertically integrated u-momentum component
                   (Min =  0.00000000E+00 Max =  0.00000000E+00)
                - vertically integrated v-momentum component
                   (Min =  0.00000000E+00 Max =  0.00000000E+00)
                - u-momentum component
                   (Min =  5.43813328E-06 Max =  5.48075797E-01)
                - v-momentum component
                   (Min =  0.00000000E+00 Max =  0.00000000E+00)
                - potential temperature
                   (Min =  1.91893466E+01 Max =  2.50000000E+01)
                - salinity
                   (Min =  2.76903933E+01 Max =  3.50000000E+01)
    GET_2DFLD   - surface u-momentum stress,                       0001-01-01 00:00:00.00
                   (Grid=01, Rec=1, Index=1, File: shelf_dx_500_uwind_zeropoint1pa_frc.nc)
                   (Tmin=          0.0000 Tmax=         59.9861)      t =          0.0000
                   (Min =  0.00000000E+00 Max =  0.00000000E+00)      regrid = F
    GET_2DFLD   - surface v-momentum stress,                       0001-01-01 00:00:00.00
                   (Grid=01, Rec=1, Index=1, File: shelf_dx_500_uwind_zeropoint1pa_frc.nc)
                   (Tmin=          0.0000 Tmax=         59.9861)      t =          0.0000
                   (Min =  0.00000000E+00 Max =  0.00000000E+00)      regrid = F
    GET_2DFLD   - solar shortwave radiation flux,                  0001-01-01 00:00:00.00
                   (Grid=01, Rec=1, Index=1, File: shelf_dx_500_uwind_zeropoint1pa_frc.nc)
                   (Tmin=          0.0000 Tmax=         59.9861)      t =          0.0000
                   (Min =  0.00000000E+00 Max =  0.00000000E+00)      regrid = F

 Basin information for Grid 01:

 Maximum grid stiffness ratios:  rx0 =   6.646286E-02 (Beckmann and Haidvogel)
                                 rx1 =   1.472010E+00 (Haney)

 Initial domain volumes:  TotVolume =  4.8610939400E+11 m3
                         MinCellVol =  2.0977522766E+04 m3
                         MaxCellVol =  3.2475594253E+06 m3
                            Max/Min =  1.5481138844E+02


 NL ROMS/TOMS: started time-stepping: (Grid: 01 TimeSteps: 000000000001 - 000000043200)

    GET_2DFLD   - surface u-momentum stress,                       0001-01-01 00:20:00.00
                   (Grid=01, Rec=2, Index=2, File: shelf_dx_500_uwind_zeropoint1pa_frc.nc)
                   (Tmin=          0.0000 Tmax=         59.9861)      t =          0.0139
                   (Min =  1.27342627E-05 Max =  1.27342627E-05)      regrid = F
    GET_2DFLD   - surface v-momentum stress,                       0001-01-01 00:20:00.00
                   (Grid=01, Rec=2, Index=2, File: shelf_dx_500_uwind_zeropoint1pa_frc.nc)
                   (Tmin=          0.0000 Tmax=         59.9861)      t =          0.0139
                   (Min =  0.00000000E+00 Max =  0.00000000E+00)      regrid = F
    GET_2DFLD   - solar shortwave radiation flux,                  0001-01-01 00:20:00.00
                   (Grid=01, Rec=2, Index=2, File: shelf_dx_500_uwind_zeropoint1pa_frc.nc)
                   (Tmin=          0.0000 Tmax=         59.9861)      t =          0.0139
                   (Min =  0.00000000E+00 Max =  0.00000000E+00)      regrid = F

 TIME-STEP YYYY-MM-DD hh:mm:ss.ss  KINETIC_ENRG   POTEN_ENRG    TOTAL_ENRG    NET_VOLUME
                     C => (i,j,k)       Cu            Cv            Cw         Max Speed

         0 0001-01-01 00:00:00.00  8.623226E-03  3.314761E+02  3.314848E+02  4.861094E+11
                     (179,099,30)  3.282524E-02  0.000000E+00  0.000000E+00  5.470874E-01
      DEF_AVG     - creating  average      file, Grid 01: shelf_dx_500_mpdata_uwind_osc_1_avg.nc
    GET_2DFLD   - surface u-momentum stress,                       0001-01-01 00:40:00.00
                   (Grid=01, Rec=3, Index=1, File: shelf_dx_500_uwind_zeropoint1pa_frc.nc)
                   (Tmin=          0.0000 Tmax=         59.9861)      t =          0.0278
                   (Min =  2.52506385E-05 Max =  2.52506385E-05)      regrid = F
    GET_2DFLD   - surface v-momentum stress,                       0001-01-01 00:40:00.00
                   (Grid=01, Rec=3, Index=1, File: shelf_dx_500_uwind_zeropoint1pa_frc.nc)
                   (Tmin=          0.0000 Tmax=         59.9861)      t =          0.0278
                   (Min =  0.00000000E+00 Max =  0.00000000E+00)      regrid = F
    GET_2DFLD   - solar shortwave radiation flux,                  0001-01-01 00:40:00.00
                   (Grid=01, Rec=3, Index=1, File: shelf_dx_500_uwind_zeropoint1pa_frc.nc)
                   (Tmin=          0.0000 Tmax=         59.9861)      t =          0.0278
                   (Min =  0.00000000E+00 Max =  0.00000000E+00)      regrid = F
        50 0001-01-01 00:25:00.00  8.739894E-03  3.313273E+02  3.313360E+02  4.861120E+11
                     (061,039,30)  1.528573E-02  2.864112E-03  2.656562E-02  5.583362E-01
    GET_2DFLD   - surface u-momentum stress,                       0001-01-01 01:00:00.00
                   (Grid=01, Rec=4, Index=2, File: shelf_dx_500_uwind_zeropoint1pa_frc.nc)
                   (Tmin=          0.0000 Tmax=         59.9861)      t =          0.0417
                   (Min =  3.73349690E-05 Max =  3.73349690E-05)      regrid = F
    GET_2DFLD   - surface v-momentum stress,                       0001-01-01 01:00:00.00
                   (Grid=01, Rec=4, Index=2, File: shelf_dx_500_uwind_zeropoint1pa_frc.nc)
                   (Tmin=          0.0000 Tmax=         59.9861)      t =          0.0417
                   (Min =  0.00000000E+00 Max =  0.00000000E+00)      regrid = F
    GET_2DFLD   - solar shortwave radiation flux,                  0001-01-01 01:00:00.00
                   (Grid=01, Rec=4, Index=2, File: shelf_dx_500_uwind_zeropoint1pa_frc.nc)
                   (Tmin=          0.0000 Tmax=         59.9861)      t =          0.0417
                   (Min =  0.00000000E+00 Max =  0.00000000E+00)      regrid = F
       100 0001-01-01 00:50:00.00  8.587881E-03  3.311208E+02  3.311294E+02  4.862333E+11
                     (001,001,30)  5.269781E-03  5.450573E-04  6.374845E-02  5.687164E-01
      WRT_AVG     - wrote averaged    fields             in record = 1
    GET_2DFLD   - surface u-momentum stress,                       0001-01-01 01:20:00.00
                   (Grid=01, Rec=5, Index=1, File: shelf_dx_500_uwind_zeropoint1pa_frc.nc)
                   (Tmin=          0.0000 Tmax=         59.9861)      t =          0.0556
                   (Min =  4.87804878E-05 Max =  4.87804878E-05)      regrid = F
    GET_2DFLD   - surface v-momentum stress,                       0001-01-01 01:20:00.00
                   (Grid=01, Rec=5, Index=1, File: shelf_dx_500_uwind_zeropoint1pa_frc.nc)
                   (Tmin=          0.0000 Tmax=         59.9861)      t =          0.0556
                   (Min =  0.00000000E+00 Max =  0.00000000E+00)      regrid = F
    GET_2DFLD   - solar shortwave radiation flux,                  0001-01-01 01:20:00.00
                   (Grid=01, Rec=5, Index=1, File: shelf_dx_500_uwind_zeropoint1pa_frc.nc)
                   (Tmin=          0.0000 Tmax=         59.9861)      t =          0.0556
                   (Min =  0.00000000E+00 Max =  0.00000000E+00)      regrid = F
       150 0001-01-01 01:15:00.00  8.212424E-03  3.310844E+02  3.310926E+02  4.864465E+11
                     (057,099,30)  3.423476E-02  1.515611E-03  3.591271E-03  5.757135E-01
    GET_2DFLD   - surface u-momentum stress,                       0001-01-01 01:40:00.00
                   (Grid=01, Rec=6, Index=2, File: shelf_dx_500_uwind_zeropoint1pa_frc.nc)
                   (Tmin=          0.0000 Tmax=         59.9861)      t =          0.0694
                   (Min =  5.93913589E-05 Max =  5.93913589E-05)      regrid = F
    GET_2DFLD   - surface v-momentum stress,                       0001-01-01 01:40:00.00
                   (Grid=01, Rec=6, Index=2, File: shelf_dx_500_uwind_zeropoint1pa_frc.nc)
                   (Tmin=          0.0000 Tmax=         59.9861)      t =          0.0694
                   (Min =  0.00000000E+00 Max =  0.00000000E+00)      regrid = F
    GET_2DFLD   - solar shortwave radiation flux,                  0001-01-01 01:40:00.00
                   (Grid=01, Rec=6, Index=2, File: shelf_dx_500_uwind_zeropoint1pa_frc.nc)
                   (Tmin=          0.0000 Tmax=         59.9861)      t =          0.0694
                   (Min =  0.00000000E+00 Max =  0.00000000E+00)      regrid = F
       200 0001-01-01 01:40:00.00  8.287657E-03  3.312009E+02  3.312091E+02  4.866383E+11
                     (015,098,30)  3.472514E-02  4.946428E-04  7.801407E-03  5.848913E-01
    GET_2DFLD   - surface u-momentum stress,                       0001-01-01 02:00:00.00
                   (Grid=01, Rec=7, Index=1, File: shelf_dx_500_uwind_zeropoint1pa_frc.nc)
                   (Tmin=          0.0000 Tmax=         59.9861)      t =          0.0833
                   (Min =  6.89860274E-05 Max =  6.89860274E-05)      regrid = F
    GET_2DFLD   - surface v-momentum stress,                       0001-01-01 02:00:00.00
                   (Grid=01, Rec=7, Index=1, File: shelf_dx_500_uwind_zeropoint1pa_frc.nc)
                   (Tmin=          0.0000 Tmax=         59.9861)      t =          0.0833
                   (Min =  0.00000000E+00 Max =  0.00000000E+00)      regrid = F
    GET_2DFLD   - solar shortwave radiation flux,                  0001-01-01 02:00:00.00
                   (Grid=01, Rec=7, Index=1, File: shelf_dx_500_uwind_zeropoint1pa_frc.nc)
                   (Tmin=          0.0000 Tmax=         59.9861)      t =          0.0833
                   (Min =  0.00000000E+00 Max =  0.00000000E+00)      regrid = F
    GET_2DFLD   - surface u-momentum stress,                       0001-01-01 02:20:00.00
                   (Grid=01, Rec=8, Index=2, File: shelf_dx_500_uwind_zeropoint1pa_frc.nc)
                   (Tmin=          0.0000 Tmax=         59.9861)      t =          0.0972
                   (Min =  7.74003259E-05 Max =  7.74003259E-05)      regrid = F
    GET_2DFLD   - surface v-momentum stress,                       0001-01-01 02:20:00.00
                   (Grid=01, Rec=8, Index=2, File: shelf_dx_500_uwind_zeropoint1pa_frc.nc)
                   (Tmin=          0.0000 Tmax=         59.9861)      t =          0.0972
                   (Min =  0.00000000E+00 Max =  0.00000000E+00)      regrid = F
    GET_2DFLD   - solar shortwave radiation flux,                  0001-01-01 02:20:00.00
                   (Grid=01, Rec=8, Index=2, File: shelf_dx_500_uwind_zeropoint1pa_frc.nc)
                   (Tmin=          0.0000 Tmax=         59.9861)      t =          0.0972
                   (Min =  0.00000000E+00 Max =  0.00000000E+00)      regrid = F
      WRT_AVG     - wrote averaged    fields             in record = 2
       250 0001-01-01 02:05:00.00  8.680714E-03  3.314035E+02  3.314122E+02  4.867532E+11
                     (091,098,30)  3.533070E-02  2.370749E-04  2.771082E-03  5.953695E-01
    GET_2DFLD   - surface u-momentum stress,                       0001-01-01 02:40:00.00
                   (Grid=01, Rec=9, Index=1, File: shelf_dx_500_uwind_zeropoint1pa_frc.nc)
                   (Tmin=          0.0000 Tmax=         59.9861)      t =          0.1111
                   (Min =  8.44902833E-05 Max =  8.44902833E-05)      regrid = F
    GET_2DFLD   - surface v-momentum stress,                       0001-01-01 02:40:00.00
                   (Grid=01, Rec=9, Index=1, File: shelf_dx_500_uwind_zeropoint1pa_frc.nc)
                   (Tmin=          0.0000 Tmax=         59.9861)      t =          0.1111
                   (Min =  0.00000000E+00 Max =  0.00000000E+00)      regrid = F
    GET_2DFLD   - solar shortwave radiation flux,                  0001-01-01 02:40:00.00
                   (Grid=01, Rec=9, Index=1, File: shelf_dx_500_uwind_zeropoint1pa_frc.nc)
                   (Tmin=          0.0000 Tmax=         59.9861)      t =          0.1111
                   (Min =  0.00000000E+00 Max =  0.00000000E+00)      regrid = F
       300 0001-01-01 02:30:00.00  9.055576E-03  3.314650E+02  3.314741E+02  4.867154E+11
                     (139,099,30)  3.592066E-02  5.373436E-04  1.223769E-03  6.035724E-01
    GET_2DFLD   - surface u-momentum stress,                       0001-01-01 03:00:00.00
                   (Grid=01, Rec=10, Index=2, File: shelf_dx_500_uwind_zeropoint1pa_frc.nc)
                   (Tmin=          0.0000 Tmax=         59.9861)      t =          0.1250
                   (Min =  9.01345885E-05 Max =  9.01345885E-05)      regrid = F
    GET_2DFLD   - surface v-momentum stress,                       0001-01-01 03:00:00.00
                   (Grid=01, Rec=10, Index=2, File: shelf_dx_500_uwind_zeropoint1pa_frc.nc)
                   (Tmin=          0.0000 Tmax=         59.9861)      t =          0.1250
                   (Min =  0.00000000E+00 Max =  0.00000000E+00)      regrid = F
    GET_2DFLD   - solar shortwave radiation flux,                  0001-01-01 03:00:00.00
                   (Grid=01, Rec=10, Index=2, File: shelf_dx_500_uwind_zeropoint1pa_frc.nc)
                   (Tmin=          0.0000 Tmax=         59.9861)      t =          0.1250
                   (Min =  0.00000000E+00 Max =  0.00000000E+00)      regrid = F
       350 0001-01-01 02:55:00.00  9.391382E-03  3.314125E+02  3.314219E+02  4.866588E+11
                     (038,099,30)  3.615985E-02  1.267752E-03  2.098215E-03  6.093511E-01
    GET_2DFLD   - surface u-momentum stress,                       0001-01-01 03:20:00.00
                   (Grid=01, Rec=11, Index=1, File: shelf_dx_500_uwind_zeropoint1pa_frc.nc)
                   (Tmin=          0.0000 Tmax=         59.9861)      t =          0.1389
                   (Min =  9.42366660E-05 Max =  9.42366660E-05)      regrid = F
    GET_2DFLD   - surface v-momentum stress,                       0001-01-01 03:20:00.00
                   (Grid=01, Rec=11, Index=1, File: shelf_dx_500_uwind_zeropoint1pa_frc.nc)
                   (Tmin=          0.0000 Tmax=         59.9861)      t =          0.1389
                   (Min =  0.00000000E+00 Max =  0.00000000E+00)      regrid = F
    GET_2DFLD   - solar shortwave radiation flux,                  0001-01-01 03:20:00.00
                   (Grid=01, Rec=11, Index=1, File: shelf_dx_500_uwind_zeropoint1pa_frc.nc)
                   (Tmin=          0.0000 Tmax=         59.9861)      t =          0.1389
                   (Min =  0.00000000E+00 Max =  0.00000000E+00)      regrid = F
      WRT_AVG     - wrote averaged    fields             in record = 3
    GET_2DFLD   - surface u-momentum stress,                       0001-01-01 03:40:00.00
                   (Grid=01, Rec=12, Index=2, File: shelf_dx_500_uwind_zeropoint1pa_frc.nc)
                   (Tmin=          0.0000 Tmax=         59.9861)      t =          0.1528
                   (Min =  9.67263279E-05 Max =  9.67263279E-05)      regrid = F
    GET_2DFLD   - surface v-momentum stress,                       0001-01-01 03:40:00.00
                   (Grid=01, Rec=12, Index=2, File: shelf_dx_500_uwind_zeropoint1pa_frc.nc)
                   (Tmin=          0.0000 Tmax=         59.9861)      t =          0.1528
                   (Min =  0.00000000E+00 Max =  0.00000000E+00)      regrid = F
    GET_2DFLD   - solar shortwave radiation flux,                  0001-01-01 03:40:00.00
                   (Grid=01, Rec=12, Index=2, File: shelf_dx_500_uwind_zeropoint1pa_frc.nc)
                   (Tmin=          0.0000 Tmax=         59.9861)      t =          0.1528
                   (Min =  0.00000000E+00 Max =  0.00000000E+00)      regrid = F
       400 0001-01-01 03:20:00.00  9.687395E-03  3.313454E+02  3.313551E+02  4.866464E+11
                     (111,099,30)  3.656031E-02  1.468159E-03  6.336890E-04  6.125021E-01
    GET_2DFLD   - surface u-momentum stress,                       0001-01-01 04:00:00.00
                   (Grid=01, Rec=13, Index=1, File: shelf_dx_500_uwind_zeropoint1pa_frc.nc)
                   (Tmin=          0.0000 Tmax=         59.9861)      t =          0.1667
                   (Min =  9.75609756E-05 Max =  9.75609756E-05)      regrid = F
    GET_2DFLD   - surface v-momentum stress,                       0001-01-01 04:00:00.00
                   (Grid=01, Rec=13, Index=1, File: shelf_dx_500_uwind_zeropoint1pa_frc.nc)
                   (Tmin=          0.0000 Tmax=         59.9861)      t =          0.1667
                   (Min =  0.00000000E+00 Max =  0.00000000E+00)      regrid = F
    GET_2DFLD   - solar shortwave radiation flux,                  0001-01-01 04:00:00.00
                   (Grid=01, Rec=13, Index=1, File: shelf_dx_500_uwind_zeropoint1pa_frc.nc)
                   (Tmin=          0.0000 Tmax=         59.9861)      t =          0.1667
                   (Min =  0.00000000E+00 Max =  0.00000000E+00)      regrid = F
       450 0001-01-01 03:45:00.00  9.967600E-03  3.313181E+02  3.313281E+02  4.866771E+11
                     (029,098,30)  3.654215E-02  1.519876E-03  7.705399E-04  6.139877E-01
    GET_2DFLD   - surface u-momentum stress,                       0001-01-01 04:20:00.00
                   (Grid=01, Rec=14, Index=2, File: shelf_dx_500_uwind_zeropoint1pa_frc.nc)
                   (Tmin=          0.0000 Tmax=         59.9861)      t =          0.1806
                   (Min =  9.67263279E-05 Max =  9.67263279E-05)      regrid = F
    GET_2DFLD   - surface v-momentum stress,                       0001-01-01 04:20:00.00
                   (Grid=01, Rec=14, Index=2, File: shelf_dx_500_uwind_zeropoint1pa_frc.nc)
                   (Tmin=          0.0000 Tmax=         59.9861)      t =          0.1806
                   (Min =  0.00000000E+00 Max =  0.00000000E+00)      regrid = F
    GET_2DFLD   - solar shortwave radiation flux,                  0001-01-01 04:20:00.00
                   (Grid=01, Rec=14, Index=2, File: shelf_dx_500_uwind_zeropoint1pa_frc.nc)
                   (Tmin=          0.0000 Tmax=         59.9861)      t =          0.1806
                   (Min =  0.00000000E+00 Max =  0.00000000E+00)      regrid = F
      WRT_AVG     - wrote averaged    fields             in record = 4
       500 0001-01-01 04:10:00.00  1.027884E-02  3.313282E+02  3.313385E+02  4.867157E+11
                     (061,098,30)  3.657165E-02  1.490914E-03  1.290193E-03  6.138806E-01
    GET_2DFLD   - surface u-momentum stress,                       0001-01-01 04:40:00.00
                   (Grid=01, Rec=15, Index=1, File: shelf_dx_500_uwind_zeropoint1pa_frc.nc)
                   (Tmin=          0.0000 Tmax=         59.9861)      t =          0.1944
                   (Min =  9.42366660E-05 Max =  9.42366660E-05)      regrid = F
    GET_2DFLD   - surface v-momentum stress,                       0001-01-01 04:40:00.00
                   (Grid=01, Rec=15, Index=1, File: shelf_dx_500_uwind_zeropoint1pa_frc.nc)
                   (Tmin=          0.0000 Tmax=         59.9861)      t =          0.1944
                   (Min =  0.00000000E+00 Max =  0.00000000E+00)      regrid = F
    GET_2DFLD   - solar shortwave radiation flux,                  0001-01-01 04:40:00.00
                   (Grid=01, Rec=15, Index=1, File: shelf_dx_500_uwind_zeropoint1pa_frc.nc)
                   (Tmin=          0.0000 Tmax=         59.9861)      t =          0.1944
                   (Min =  0.00000000E+00 Max =  0.00000000E+00)      regrid = F
       550 0001-01-01 04:35:00.00  1.062094E-02  3.313600E+02  3.313706E+02  4.867449E+11
                     (182,098,30)  3.672292E-02  1.301642E-03  8.353675E-04  6.124333E-01
    GET_2DFLD   - surface u-momentum stress,                       0001-01-01 05:00:00.00
                   (Grid=01, Rec=16, Index=2, File: shelf_dx_500_uwind_zeropoint1pa_frc.nc)
                   (Tmin=          0.0000 Tmax=         59.9861)      t =          0.2083
                   (Min =  9.01345885E-05 Max =  9.01345885E-05)      regrid = F
    GET_2DFLD   - surface v-momentum stress,                       0001-01-01 05:00:00.00
                   (Grid=01, Rec=16, Index=2, File: shelf_dx_500_uwind_zeropoint1pa_frc.nc)
                   (Tmin=          0.0000 Tmax=         59.9861)      t =          0.2083
                   (Min =  0.00000000E+00 Max =  0.00000000E+00)      regrid = F
    GET_2DFLD   - solar shortwave radiation flux,                  0001-01-01 05:00:00.00
                   (Grid=01, Rec=16, Index=2, File: shelf_dx_500_uwind_zeropoint1pa_frc.nc)
                   (Tmin=          0.0000 Tmax=         59.9861)      t =          0.2083
                   (Min =  0.00000000E+00 Max =  0.00000000E+00)      regrid = F
    GET_2DFLD   - surface u-momentum stress,                       0001-01-01 05:20:00.00
                   (Grid=01, Rec=17, Index=1, File: shelf_dx_500_uwind_zeropoint1pa_frc.nc)
                   (Tmin=          0.0000 Tmax=         59.9861)      t =          0.2222
                   (Min =  8.44902833E-05 Max =  8.44902833E-05)      regrid = F
    GET_2DFLD   - surface v-momentum stress,                       0001-01-01 05:20:00.00
                   (Grid=01, Rec=17, Index=1, File: shelf_dx_500_uwind_zeropoint1pa_frc.nc)
                   (Tmin=          0.0000 Tmax=         59.9861)      t =          0.2222
                   (Min =  0.00000000E+00 Max =  0.00000000E+00)      regrid = F
    GET_2DFLD   - solar shortwave radiation flux,                  0001-01-01 05:20:00.00
                   (Grid=01, Rec=17, Index=1, File: shelf_dx_500_uwind_zeropoint1pa_frc.nc)
                   (Tmin=          0.0000 Tmax=         59.9861)      t =          0.2222
                   (Min =  0.00000000E+00 Max =  0.00000000E+00)      regrid = F
       600 0001-01-01 05:00:00.00  1.093880E-02  3.313837E+02  3.313947E+02  4.867535E+11
                     (184,098,30)  3.651291E-02  1.489291E-03  4.197182E-04  6.093519E-01
      WRT_AVG     - wrote averaged    fields             in record = 5
    GET_2DFLD   - surface u-momentum stress,                       0001-01-01 05:40:00.00
                   (Grid=01, Rec=18, Index=2, File: shelf_dx_500_uwind_zeropoint1pa_frc.nc)
                   (Tmin=          0.0000 Tmax=         59.9861)      t =          0.2361
                   (Min =  7.74003259E-05 Max =  7.74003259E-05)      regrid = F
    GET_2DFLD   - surface v-momentum stress,                       0001-01-01 05:40:00.00
                   (Grid=01, Rec=18, Index=2, File: shelf_dx_500_uwind_zeropoint1pa_frc.nc)
                   (Tmin=          0.0000 Tmax=         59.9861)      t =          0.2361
                   (Min =  0.00000000E+00 Max =  0.00000000E+00)      regrid = F
    GET_2DFLD   - solar shortwave radiation flux,                  0001-01-01 05:40:00.00
                   (Grid=01, Rec=18, Index=2, File: shelf_dx_500_uwind_zeropoint1pa_frc.nc)
                   (Tmin=          0.0000 Tmax=         59.9861)      t =          0.2361
                   (Min =  0.00000000E+00 Max =  0.00000000E+00)      regrid = F
       650 0001-01-01 05:25:00.00  1.119252E-02  3.313737E+02  3.313849E+02  4.867457E+11
                     (064,098,30)  3.600389E-02  1.695049E-03  2.501286E-04  6.042164E-01
    GET_2DFLD   - surface u-momentum stress,                       0001-01-01 06:00:00.00
                   (Grid=01, Rec=19, Index=1, File: shelf_dx_500_uwind_zeropoint1pa_frc.nc)
                   (Tmin=          0.0000 Tmax=         59.9861)      t =          0.2500
                   (Min =  6.89860274E-05 Max =  6.89860274E-05)      regrid = F
    GET_2DFLD   - surface v-momentum stress,                       0001-01-01 06:00:00.00
                   (Grid=01, Rec=19, Index=1, File: shelf_dx_500_uwind_zeropoint1pa_frc.nc)
                   (Tmin=          0.0000 Tmax=         59.9861)      t =          0.2500
                   (Min =  0.00000000E+00 Max =  0.00000000E+00)      regrid = F
    GET_2DFLD   - solar shortwave radiation flux,                  0001-01-01 06:00:00.00
                   (Grid=01, Rec=19, Index=1, File: shelf_dx_500_uwind_zeropoint1pa_frc.nc)
                   (Tmin=          0.0000 Tmax=         59.9861)      t =          0.2500
                   (Min =  0.00000000E+00 Max =  0.00000000E+00)      regrid = F
       700 0001-01-01 05:50:00.00  1.137173E-02  3.313603E+02  3.313717E+02  4.867480E+11
                     (187,098,30)  3.578713E-02  1.779261E-03  2.113947E-04  5.976185E-01
    GET_2DFLD   - surface u-momentum stress,                       0001-01-01 06:20:00.00
                   (Grid=01, Rec=20, Index=2, File: shelf_dx_500_uwind_zeropoint1pa_frc.nc)
                   (Tmin=          0.0000 Tmax=         59.9861)      t =          0.2639
                   (Min =  5.93913589E-05 Max =  5.93913589E-05)      regrid = F
    GET_2DFLD   - surface v-momentum stress,                       0001-01-01 06:20:00.00
                   (Grid=01, Rec=20, Index=2, File: shelf_dx_500_uwind_zeropoint1pa_frc.nc)
                   (Tmin=          0.0000 Tmax=         59.9861)      t =          0.2639
                   (Min =  0.00000000E+00 Max =  0.00000000E+00)      regrid = F
    GET_2DFLD   - solar shortwave radiation flux,                  0001-01-01 06:20:00.00
                   (Grid=01, Rec=20, Index=2, File: shelf_dx_500_uwind_zeropoint1pa_frc.nc)
                   (Tmin=          0.0000 Tmax=         59.9861)      t =          0.2639
                   (Min =  0.00000000E+00 Max =  0.00000000E+00)      regrid = F
      WRT_AVG     - wrote averaged    fields             in record = 6
       750 0001-01-01 06:15:00.00  1.148249E-02  3.313527E+02  3.313642E+02  4.867591E+11
                     (186,098,30)  3.525471E-02  1.749205E-03  3.647800E-04  5.889307E-01
    GET_2DFLD   - surface u-momentum stress,                       0001-01-01 06:40:00.00
                   (Grid=01, Rec=21, Index=1, File: shelf_dx_500_uwind_zeropoint1pa_frc.nc)
                   (Tmin=          0.0000 Tmax=         59.9861)      t =          0.2778
                   (Min =  4.87804878E-05 Max =  4.87804878E-05)      regrid = F
    GET_2DFLD   - surface v-momentum stress,                       0001-01-01 06:40:00.00
                   (Grid=01, Rec=21, Index=1, File: shelf_dx_500_uwind_zeropoint1pa_frc.nc)
                   (Tmin=          0.0000 Tmax=         59.9861)      t =          0.2778
                   (Min =  0.00000000E+00 Max =  0.00000000E+00)      regrid = F
    GET_2DFLD   - solar shortwave radiation flux,                  0001-01-01 06:40:00.00
                   (Grid=01, Rec=21, Index=1, File: shelf_dx_500_uwind_zeropoint1pa_frc.nc)
                   (Tmin=          0.0000 Tmax=         59.9861)      t =          0.2778
                   (Min =  0.00000000E+00 Max =  0.00000000E+00)      regrid = F
    GET_2DFLD   - surface u-momentum stress,                       0001-01-01 07:00:00.00
                   (Grid=01, Rec=22, Index=2, File: shelf_dx_500_uwind_zeropoint1pa_frc.nc)
                   (Tmin=          0.0000 Tmax=         59.9861)      t =          0.2917
                   (Min =  3.73349690E-05 Max =  3.73349690E-05)      regrid = F
    GET_2DFLD   - surface v-momentum stress,                       0001-01-01 07:00:00.00
                   (Grid=01, Rec=22, Index=2, File: shelf_dx_500_uwind_zeropoint1pa_frc.nc)
                   (Tmin=          0.0000 Tmax=         59.9861)      t =          0.2917
                   (Min =  0.00000000E+00 Max =  0.00000000E+00)      regrid = F
    GET_2DFLD   - solar shortwave radiation flux,                  0001-01-01 07:00:00.00
                   (Grid=01, Rec=22, Index=2, File: shelf_dx_500_uwind_zeropoint1pa_frc.nc)
                   (Tmin=          0.0000 Tmax=         59.9861)      t =          0.2917
                   (Min =  0.00000000E+00 Max =  0.00000000E+00)      regrid = F
       800 0001-01-01 06:40:00.00  1.153032E-02  3.313543E+02  3.313659E+02  4.867732E+11
                     (189,098,30)  3.463843E-02  1.765308E-03  1.219645E-04  5.782644E-01
    GET_2DFLD   - surface u-momentum stress,                       0001-01-01 07:20:00.00
                   (Grid=01, Rec=23, Index=1, File: shelf_dx_500_uwind_zeropoint1pa_frc.nc)
                   (Tmin=          0.0000 Tmax=         59.9861)      t =          0.3056
                   (Min =  2.52506385E-05 Max =  2.52506385E-05)      regrid = F
    GET_2DFLD   - surface v-momentum stress,                       0001-01-01 07:20:00.00
                   (Grid=01, Rec=23, Index=1, File: shelf_dx_500_uwind_zeropoint1pa_frc.nc)
                   (Tmin=          0.0000 Tmax=         59.9861)      t =          0.3056
                   (Min =  0.00000000E+00 Max =  0.00000000E+00)      regrid = F
    GET_2DFLD   - solar shortwave radiation flux,                  0001-01-01 07:20:00.00
                   (Grid=01, Rec=23, Index=1, File: shelf_dx_500_uwind_zeropoint1pa_frc.nc)
                   (Tmin=          0.0000 Tmax=         59.9861)      t =          0.3056
                   (Min =  0.00000000E+00 Max =  0.00000000E+00)      regrid = F
      WRT_AVG     - wrote averaged    fields             in record = 7
       850 0001-01-01 07:05:00.00  1.151516E-02  3.313611E+02  3.313726E+02  4.867846E+11
                     (131,098,30)  3.377371E-02  1.645577E-03  3.810588E-04  5.653781E-01
    GET_2DFLD   - surface u-momentum stress,                       0001-01-01 07:40:00.00
                   (Grid=01, Rec=24, Index=2, File: shelf_dx_500_uwind_zeropoint1pa_frc.nc)
                   (Tmin=          0.0000 Tmax=         59.9861)      t =          0.3194
                   (Min =  1.27342627E-05 Max =  1.27342627E-05)      regrid = F
    GET_2DFLD   - surface v-momentum stress,                       0001-01-01 07:40:00.00
                   (Grid=01, Rec=24, Index=2, File: shelf_dx_500_uwind_zeropoint1pa_frc.nc)
                   (Tmin=          0.0000 Tmax=         59.9861)      t =          0.3194
                   (Min =  0.00000000E+00 Max =  0.00000000E+00)      regrid = F
    GET_2DFLD   - solar shortwave radiation flux,                  0001-01-01 07:40:00.00
                   (Grid=01, Rec=24, Index=2, File: shelf_dx_500_uwind_zeropoint1pa_frc.nc)
                   (Tmin=          0.0000 Tmax=         59.9861)      t =          0.3194
                   (Min =  0.00000000E+00 Max =  0.00000000E+00)      regrid = F
       900 0001-01-01 07:30:00.00  1.143236E-02  3.313684E+02  3.313798E+02  4.867915E+11
                     (087,098,30)  3.276427E-02  1.545505E-03  4.151780E-04  5.505392E-01
    GET_2DFLD   - surface u-momentum stress,                       0001-01-01 08:00:00.00
                   (Grid=01, Rec=25, Index=1, File: shelf_dx_500_uwind_zeropoint1pa_frc.nc)
                   (Tmin=          0.0000 Tmax=         59.9861)      t =          0.3333
                   (Min =  1.19477737E-20 Max =  1.19477737E-20)      regrid = F
    GET_2DFLD   - surface v-momentum stress,                       0001-01-01 08:00:00.00
                   (Grid=01, Rec=25, Index=1, File: shelf_dx_500_uwind_zeropoint1pa_frc.nc)
                   (Tmin=          0.0000 Tmax=         59.9861)      t =          0.3333
                   (Min =  0.00000000E+00 Max =  0.00000000E+00)      regrid = F
    GET_2DFLD   - solar shortwave radiation flux,                  0001-01-01 08:00:00.00
                   (Grid=01, Rec=25, Index=1, File: shelf_dx_500_uwind_zeropoint1pa_frc.nc)
                   (Tmin=          0.0000 Tmax=         59.9861)      t =          0.3333
                   (Min =  0.00000000E+00 Max =  0.00000000E+00)      regrid = F
       950 0001-01-01 07:55:00.00  1.128087E-02  3.313702E+02  3.313815E+02  4.867930E+11
                     (135,098,23)  3.020236E-02  1.441176E-03  2.272921E-03  5.332429E-01
    GET_2DFLD   - surface u-momentum stress,                       0001-01-01 08:20:00.00
                   (Grid=01, Rec=26, Index=2, File: shelf_dx_500_uwind_zeropoint1pa_frc.nc)
                   (Tmin=          0.0000 Tmax=         59.9861)      t =          0.3472
                   (Min = -1.27342627E-05 Max = -1.27342627E-05)      regrid = F
    GET_2DFLD   - surface v-momentum stress,                       0001-01-01 08:20:00.00
                   (Grid=01, Rec=26, Index=2, File: shelf_dx_500_uwind_zeropoint1pa_frc.nc)
                   (Tmin=          0.0000 Tmax=         59.9861)      t =          0.3472
                   (Min =  0.00000000E+00 Max =  0.00000000E+00)      regrid = F
    GET_2DFLD   - solar shortwave radiation flux,                  0001-01-01 08:20:00.00
                   (Grid=01, Rec=26, Index=2, File: shelf_dx_500_uwind_zeropoint1pa_frc.nc)
                   (Tmin=          0.0000 Tmax=         59.9861)      t =          0.3472
                   (Min =  0.00000000E+00 Max =  0.00000000E+00)      regrid = F
      WRT_AVG     - wrote averaged    fields             in record = 8
    GET_2DFLD   - surface u-momentum stress,                       0001-01-01 08:40:00.00
                   (Grid=01, Rec=27, Index=1, File: shelf_dx_500_uwind_zeropoint1pa_frc.nc)
                   (Tmin=          0.0000 Tmax=         59.9861)      t =          0.3611
                   (Min = -2.52506385E-05 Max = -2.52506385E-05)      regrid = F
    GET_2DFLD   - surface v-momentum stress,                       0001-01-01 08:40:00.00
                   (Grid=01, Rec=27, Index=1, File: shelf_dx_500_uwind_zeropoint1pa_frc.nc)
                   (Tmin=          0.0000 Tmax=         59.9861)      t =          0.3611
                   (Min =  0.00000000E+00 Max =  0.00000000E+00)      regrid = F
    GET_2DFLD   - solar shortwave radiation flux,                  0001-01-01 08:40:00.00
                   (Grid=01, Rec=27, Index=1, File: shelf_dx_500_uwind_zeropoint1pa_frc.nc)
                   (Tmin=          0.0000 Tmax=         59.9861)      t =          0.3611
                   (Min =  0.00000000E+00 Max =  0.00000000E+00)      regrid = F
      1000 0001-01-01 08:20:00.00  1.106567E-02  3.313698E+02  3.313809E+02  4.867938E+11
                     (005,098,21)  2.956890E-02  1.284878E-03  3.114982E-03  5.066452E-01
    GET_2DFLD   - surface u-momentum stress,                       0001-01-01 09:00:00.00
                   (Grid=01, Rec=28, Index=2, File: shelf_dx_500_uwind_zeropoint1pa_frc.nc)
                   (Tmin=          0.0000 Tmax=         59.9861)      t =          0.3750
                   (Min = -3.73349690E-05 Max = -3.73349690E-05)      regrid = F
    GET_2DFLD   - surface v-momentum stress,                       0001-01-01 09:00:00.00
                   (Grid=01, Rec=28, Index=2, File: shelf_dx_500_uwind_zeropoint1pa_frc.nc)
                   (Tmin=          0.0000 Tmax=         59.9861)      t =          0.3750
                   (Min =  0.00000000E+00 Max =  0.00000000E+00)      regrid = F
    GET_2DFLD   - solar shortwave radiation flux,                  0001-01-01 09:00:00.00
                   (Grid=01, Rec=28, Index=2, File: shelf_dx_500_uwind_zeropoint1pa_frc.nc)
                   (Tmin=          0.0000 Tmax=         59.9861)      t =          0.3750
                   (Min =  0.00000000E+00 Max =  0.00000000E+00)      regrid = F
      1050 0001-01-01 08:45:00.00  1.079494E-02  3.313702E+02  3.313810E+02  4.867950E+11
                     (005,098,19)  2.917223E-02  1.122876E-03  4.239046E-03  4.924866E-01
    GET_2DFLD   - surface u-momentum stress,                       0001-01-01 09:20:00.00
                   (Grid=01, Rec=29, Index=1, File: shelf_dx_500_uwind_zeropoint1pa_frc.nc)
                   (Tmin=          0.0000 Tmax=         59.9861)      t =          0.3889
                   (Min = -4.87804878E-05 Max = -4.87804878E-05)      regrid = F
    GET_2DFLD   - surface v-momentum stress,                       0001-01-01 09:20:00.00
                   (Grid=01, Rec=29, Index=1, File: shelf_dx_500_uwind_zeropoint1pa_frc.nc)
                   (Tmin=          0.0000 Tmax=         59.9861)      t =          0.3889
                   (Min =  0.00000000E+00 Max =  0.00000000E+00)      regrid = F
[...]
                     (153,132,19)  2.139826E-02  7.943540E-04  1.145592E-01  1.105382E+00
    GET_2DFLD   - surface u-momentum stress,                       0001-01-15 22:20:00.00
                   (Grid=01, Rec=1076, Index=2, File: shelf_dx_500_uwind_zeropoint1pa_frc.nc)
                   (Tmin=          0.0000 Tmax=         59.9861)      t =         14.9306
                   (Min =  5.93913589E-05 Max =  5.93913589E-05)      regrid = F
    GET_2DFLD   - surface v-momentum stress,                       0001-01-15 22:20:00.00
                   (Grid=01, Rec=1076, Index=2, File: shelf_dx_500_uwind_zeropoint1pa_frc.nc)
                   (Tmin=          0.0000 Tmax=         59.9861)      t =         14.9306
                   (Min =  0.00000000E+00 Max =  0.00000000E+00)      regrid = F
    GET_2DFLD   - solar shortwave radiation flux,                  0001-01-15 22:20:00.00
                   (Grid=01, Rec=1076, Index=2, File: shelf_dx_500_uwind_zeropoint1pa_frc.nc)
                   (Tmin=          0.0000 Tmax=         59.9861)      t =         14.9306
                   (Min =  0.00000000E+00 Max =  0.00000000E+00)      regrid = F
      WRT_AVG     - wrote averaged    fields             in record = 358
    GET_2DFLD   - surface u-momentum stress,                       0001-01-15 22:40:00.00
                   (Grid=01, Rec=1077, Index=1, File: shelf_dx_500_uwind_zeropoint1pa_frc.nc)
                   (Tmin=          0.0000 Tmax=         59.9861)      t =         14.9444
                   (Min =  4.87804878E-05 Max =  4.87804878E-05)      regrid = F
    GET_2DFLD   - surface v-momentum stress,                       0001-01-15 22:40:00.00
                   (Grid=01, Rec=1077, Index=1, File: shelf_dx_500_uwind_zeropoint1pa_frc.nc)
                   (Tmin=          0.0000 Tmax=         59.9861)      t =         14.9444
                   (Min =  0.00000000E+00 Max =  0.00000000E+00)      regrid = F
    GET_2DFLD   - solar shortwave radiation flux,                  0001-01-15 22:40:00.00
                   (Grid=01, Rec=1077, Index=1, File: shelf_dx_500_uwind_zeropoint1pa_frc.nc)
                   (Tmin=          0.0000 Tmax=         59.9861)      t =         14.9444
                   (Min =  0.00000000E+00 Max =  0.00000000E+00)      regrid = F
     43000 0001-01-15 22:20:00.00  1.805904E-02  3.313788E+02  3.313969E+02  4.866204E+11
                     (155,132,19)  1.888352E-02  2.520331E-03  1.037107E-01  1.111897E+00
    GET_2DFLD   - surface u-momentum stress,                       0001-01-15 23:00:00.00
                   (Grid=01, Rec=1078, Index=2, File: shelf_dx_500_uwind_zeropoint1pa_frc.nc)
                   (Tmin=          0.0000 Tmax=         59.9861)      t =         14.9583
                   (Min =  3.73349690E-05 Max =  3.73349690E-05)      regrid = F
    GET_2DFLD   - surface v-momentum stress,                       0001-01-15 23:00:00.00
                   (Grid=01, Rec=1078, Index=2, File: shelf_dx_500_uwind_zeropoint1pa_frc.nc)
                   (Tmin=          0.0000 Tmax=         59.9861)      t =         14.9583
                   (Min =  0.00000000E+00 Max =  0.00000000E+00)      regrid = F
    GET_2DFLD   - solar shortwave radiation flux,                  0001-01-15 23:00:00.00
                   (Grid=01, Rec=1078, Index=2, File: shelf_dx_500_uwind_zeropoint1pa_frc.nc)
                   (Tmin=          0.0000 Tmax=         59.9861)      t =         14.9583
                   (Min =  0.00000000E+00 Max =  0.00000000E+00)      regrid = F
     43050 0001-01-15 22:45:00.00  1.802704E-02  3.313786E+02  3.313967E+02  4.866308E+11
                     (102,066,08)  4.597932E-03  1.752029E-02  9.786142E-02  1.115388E+00
    GET_2DFLD   - surface u-momentum stress,                       0001-01-15 23:20:00.00
                   (Grid=01, Rec=1079, Index=1, File: shelf_dx_500_uwind_zeropoint1pa_frc.nc)
                   (Tmin=          0.0000 Tmax=         59.9861)      t =         14.9722
                   (Min =  2.52506385E-05 Max =  2.52506385E-05)      regrid = F
    GET_2DFLD   - surface v-momentum stress,                       0001-01-15 23:20:00.00
                   (Grid=01, Rec=1079, Index=1, File: shelf_dx_500_uwind_zeropoint1pa_frc.nc)
                   (Tmin=          0.0000 Tmax=         59.9861)      t =         14.9722
                   (Min =  0.00000000E+00 Max =  0.00000000E+00)      regrid = F
    GET_2DFLD   - solar shortwave radiation flux,                  0001-01-15 23:20:00.00
                   (Grid=01, Rec=1079, Index=1, File: shelf_dx_500_uwind_zeropoint1pa_frc.nc)
                   (Tmin=          0.0000 Tmax=         59.9861)      t =         14.9722
                   (Min =  0.00000000E+00 Max =  0.00000000E+00)      regrid = F
      WRT_AVG     - wrote averaged    fields             in record = 359
     43100 0001-01-15 23:10:00.00  1.782257E-02  3.313787E+02  3.313966E+02  4.866401E+11
                     (016,087,18)  3.876538E-02  2.560651E-02  5.429345E-02  1.107161E+00
    GET_2DFLD   - surface u-momentum stress,                       0001-01-15 23:40:00.00
                   (Grid=01, Rec=1080, Index=2, File: shelf_dx_500_uwind_zeropoint1pa_frc.nc)
                   (Tmin=          0.0000 Tmax=         59.9861)      t =         14.9861
                   (Min =  1.27342627E-05 Max =  1.27342627E-05)      regrid = F
    GET_2DFLD   - surface v-momentum stress,                       0001-01-15 23:40:00.00
                   (Grid=01, Rec=1080, Index=2, File: shelf_dx_500_uwind_zeropoint1pa_frc.nc)
                   (Tmin=          0.0000 Tmax=         59.9861)      t =         14.9861
                   (Min =  0.00000000E+00 Max =  0.00000000E+00)      regrid = F
    GET_2DFLD   - solar shortwave radiation flux,                  0001-01-15 23:40:00.00
                   (Grid=01, Rec=1080, Index=2, File: shelf_dx_500_uwind_zeropoint1pa_frc.nc)
                   (Tmin=          0.0000 Tmax=         59.9861)      t =         14.9861
                   (Min =  0.00000000E+00 Max =  0.00000000E+00)      regrid = F
     43150 0001-01-15 23:35:00.00  1.744906E-02  3.313792E+02  3.313967E+02  4.866481E+11
                     (016,087,18)  3.992044E-02  2.740440E-02  6.094700E-02  1.084037E+00
    GET_2DFLD   - surface u-momentum stress,                       0001-01-16 00:00:00.00
                   (Grid=01, Rec=1081, Index=1, File: shelf_dx_500_uwind_zeropoint1pa_frc.nc)
                   (Tmin=          0.0000 Tmax=         59.9861)      t =         15.0000
                   (Min =  1.91043602E-19 Max =  1.91043602E-19)      regrid = F
    GET_2DFLD   - surface v-momentum stress,                       0001-01-16 00:00:00.00
                   (Grid=01, Rec=1081, Index=1, File: shelf_dx_500_uwind_zeropoint1pa_frc.nc)
                   (Tmin=          0.0000 Tmax=         59.9861)      t =         15.0000
                   (Min =  0.00000000E+00 Max =  0.00000000E+00)      regrid = F
    GET_2DFLD   - solar shortwave radiation flux,                  0001-01-16 00:00:00.00
                   (Grid=01, Rec=1081, Index=1, File: shelf_dx_500_uwind_zeropoint1pa_frc.nc)
                   (Tmin=          0.0000 Tmax=         59.9861)      t =         15.0000
                   (Min =  0.00000000E+00 Max =  0.00000000E+00)      regrid = F
    GET_2DFLD   - surface u-momentum stress,                       0001-01-16 00:20:00.00
                   (Grid=01, Rec=1082, Index=2, File: shelf_dx_500_uwind_zeropoint1pa_frc.nc)
                   (Tmin=          0.0000 Tmax=         59.9861)      t =         15.0139
                   (Min = -1.27342627E-05 Max = -1.27342627E-05)      regrid = F
    GET_2DFLD   - surface v-momentum stress,                       0001-01-16 00:20:00.00
                   (Grid=01, Rec=1082, Index=2, File: shelf_dx_500_uwind_zeropoint1pa_frc.nc)
                   (Tmin=          0.0000 Tmax=         59.9861)      t =         15.0139
                   (Min =  0.00000000E+00 Max =  0.00000000E+00)      regrid = F
    GET_2DFLD   - solar shortwave radiation flux,                  0001-01-16 00:20:00.00
                   (Grid=01, Rec=1082, Index=2, File: shelf_dx_500_uwind_zeropoint1pa_frc.nc)
                   (Tmin=          0.0000 Tmax=         59.9861)      t =         15.0139
                   (Min =  0.00000000E+00 Max =  0.00000000E+00)      regrid = F
     43200 0001-01-16 00:00:00.00  1.692339E-02  3.313802E+02  3.313971E+02  4.866545E+11
                     (017,087,18)  3.708976E-02  2.767470E-02  7.274267E-02  1.047627E+00
      WRT_AVG     - wrote averaged    fields             in record = 360

Elapsed wall CPU time for each process (seconds):

 Node   #    0 CPU:    2669.421
 Node   #    1 CPU:    2678.786
 Node   #    4 CPU:    2678.764
 Node   #    6 CPU:    2679.119
 Node   #   31 CPU:    2677.043
 Node   #    2 CPU:    2678.624
 Node   #    5 CPU:    2679.331
 Node   #    7 CPU:    2678.988
 Node   #   22 CPU:    2676.664
 Node   #   10 CPU:    2676.743
 Node   #   25 CPU:    2676.664
 Node   #   26 CPU:    2676.471
 Node   #   29 CPU:    2676.753
 Node   #    8 CPU:    2676.718
 Node   #   11 CPU:    2676.803
 Node   #   12 CPU:    2676.861
 Node   #   14 CPU:    2677.225
 Node   #   15 CPU:    2677.269
 Node   #   17 CPU:    2676.683
 Node   #   18 CPU:    2676.851
 Node   #   19 CPU:    2676.641
 Node   #   20 CPU:    2676.491
 Node   #   23 CPU:    2676.626
 Node   #   24 CPU:    2676.730
 Node   #   27 CPU:    2676.975
 Node   #   28 CPU:    2676.810
 Node   #    9 CPU:    2676.782
 Node   #   13 CPU:    2676.805
 Node   #   16 CPU:    2676.845
 Node   #   21 CPU:    2676.928
 Node   #   30 CPU:    2676.593
 Node   #    3 CPU:    2678.888
 Node   #   32 CPU:    2669.333
 Node   #   33 CPU:    2670.057
 Node   #   34 CPU:    2670.297
 Node   #   35 CPU:    2670.209
 Node   #   36 CPU:    2670.441
 Node   #   37 CPU:    2670.362
 Node   #   38 CPU:    2670.500
 Node   #   39 CPU:    2670.299
 Node   #   40 CPU:    2670.314
 Node   #   41 CPU:    2670.396
 Node   #   42 CPU:    2670.399
 Node   #   43 CPU:    2670.310
 Node   #   44 CPU:    2670.485
 Node   #   45 CPU:    2670.312
 Node   #   46 CPU:    2670.391
 Node   #   47 CPU:    2670.404
 Node   #   48 CPU:    2671.621
 Node   #   49 CPU:    2671.615
 Node   #   50 CPU:    2671.795
 Node   #   51 CPU:    2671.771
 Node   #   52 CPU:    2671.848
 Node   #   53 CPU:    2671.571
 Node   #   54 CPU:    2671.644
 Node   #   55 CPU:    2671.652
 Node   #   56 CPU:    2671.852
 Node   #   57 CPU:    2671.641
 Node   #   58 CPU:    2672.001
 Node   #   59 CPU:    2671.660
 Node   #   60 CPU:    2671.896
 Node   #   61 CPU:    2671.532
 Node   #   62 CPU:    2671.782
 Node   #   63 CPU:    2671.795
 Total:              171137.082
 Average:              2674.017
 Minimum:              2669.333
 Maximum:              2679.331

 Nonlinear model elapsed CPU time profile, Grid: 01

  Allocation and array initialization ..............         0.717  ( 0.0004 %)
  Ocean state initialization .......................       113.175  ( 0.0661 %)
  Reading of input data ............................       534.281  ( 0.3122 %)
  Processing of input data .........................      3866.495  ( 2.2593 %)
  Processing of output time averaged data ..........      1990.907  ( 1.1633 %)
  Computation of vertical boundary conditions ......       225.072  ( 0.1315 %)
  Computation of global information integrals ......       122.537  ( 0.0716 %)
  Writing of output data ...........................      7912.581  ( 4.6235 %)
  Model 2D kernel ..................................     28871.859  (16.8706 %)
  2D/3D coupling, vertical metrics .................      3310.608  ( 1.9345 %)
  Omega vertical velocity ..........................      1936.807  ( 1.1317 %)
  Equation of state for seawater ...................      2807.709  ( 1.6406 %)
  KPP vertical mixing parameterization .............     10594.854  ( 6.1909 %)
  3D equations right-side terms ....................      2899.546  ( 1.6943 %)
  3D equations predictor step ......................     15753.830  ( 9.2054 %)
  Pressure gradient ................................      1043.258  ( 0.6096 %)
  Corrector time-step for 3D momentum ..............      4642.985  ( 2.7130 %)
  Corrector time-step for tracers ..................     81570.901  (47.6641 %)
                                              Total:    168198.120   98.2827 %

  Unique kernel(s) regions profiled ................    168198.120   98.2827 %
  Residual, non-profiled code ......................      2938.961    1.7173 %


 All percentages are with respect to total time =       171137.082


 MPI communications profile, Grid: 01

  Message Passage: 2D halo exchanges ...............     19253.920  (11.2506 %)
  Message Passage: 3D halo exchanges ...............      9888.300  ( 5.7780 %)
  Message Passage: 4D halo exchanges ...............     11199.932  ( 6.5444 %)
  Message Passage: data broadcast ..................      7239.686  ( 4.2303 %)
  Message Passage: data reduction ..................        93.316  ( 0.0545 %)
  Message Passage: data gathering ..................       823.188  ( 0.4810 %)
  Message Passage: data scattering..................         4.319  ( 0.0025 %)
  Message Passage: point data gathering ............        13.532  ( 0.0079 %)
  Message Passage: synchronization barrier .........         0.077  ( 0.0000 %)
                                              Total:     48516.269   28.3494 %

>>>>>>>>>>>>>>>>>>>>>>>>>>>>>>>>>>>>>>>>>>>>>>>>>>>>>>>>>>>>>>>>>>>>>>>>>>>>>>>>

 Dynamic and Automatic memory (MB) usage for Grid 01:  192x192x30  tiling: 16x4

     tile          Dynamic        Automatic            USAGE      MPI-Buffers

        0            14.81            18.67            33.48            18.67
        1            14.09            18.67            32.75            18.67
        2            14.09            18.67            32.75            18.67
        3            14.09            18.67            32.75            18.67
        4            14.09            18.67            32.75            18.67
        5            14.09            18.67            32.75            18.67
        6            14.09            18.67            32.75            18.67
        7            14.09            18.67            32.75            18.67
        8            14.09            18.67            32.75            18.67
        9            14.09            18.67            32.75            18.67
       10            14.09            18.67            32.75            18.67
       11            14.09            18.67            32.75            18.67
       12            14.09            18.67            32.75            18.67
       13            14.09            18.67            32.75            18.67
       14            14.09            18.67            32.75            18.67
       15            14.81            18.67            33.48            18.67
       16            15.34            18.67            34.01            18.67
       17            14.59            18.67            33.26            18.67
       18            14.59            18.67            33.26            18.67
       19            14.59            18.67            33.26            18.67
       20            14.59            18.67            33.26            18.67
       21            14.59            18.67            33.26            18.67
       22            14.59            18.67            33.26            18.67
       23            14.59            18.67            33.26            18.67
       24            14.59            18.67            33.26            18.67
       25            14.59            18.67            33.26            18.67
       26            14.59            18.67            33.26            18.67
       27            14.59            18.67            33.26            18.67
       28            14.59            18.67            33.26            18.67
       29            14.59            18.67            33.26            18.67
       30            14.59            18.67            33.26            18.67
       31            15.34            18.67            34.01            18.67
       32            15.34            18.67            34.01            18.67
       33            14.59            18.67            33.26            18.67
       34            14.59            18.67            33.26            18.67
       35            14.59            18.67            33.26            18.67
       36            14.59            18.67            33.26            18.67
       37            14.59            18.67            33.26            18.67
       38            14.59            18.67            33.26            18.67
       39            14.59            18.67            33.26            18.67
       40            14.59            18.67            33.26            18.67
       41            14.59            18.67            33.26            18.67
       42            14.59            18.67            33.26            18.67
       43            14.59            18.67            33.26            18.67
       44            14.59            18.67            33.26            18.67
       45            14.59            18.67            33.26            18.67
       46            14.59            18.67            33.26            18.67
       47            15.34            18.67            34.01            18.67
       48            15.08            18.67            33.75            18.67
       49            14.34            18.67            33.01            18.67
       50            14.34            18.67            33.01            18.67
       51            14.34            18.67            33.01            18.67
       52            14.34            18.67            33.01            18.67
       53            14.34            18.67            33.01            18.67
       54            14.34            18.67            33.01            18.67
       55            14.34            18.67            33.01            18.67
       56            14.34            18.67            33.01            18.67
       57            14.34            18.67            33.01            18.67
       58            14.34            18.67            33.01            18.67
       59            14.34            18.67            33.01            18.67
       60            14.34            18.67            33.01            18.67
       61            14.34            18.67            33.01            18.67
       62            14.34            18.67            33.01            18.67
       63            15.08            18.67            33.75            18.67

    TOTAL           927.60          1194.72          2122.32          1194.59

<<<<<<<<<<<<<<<<<<<<<<<<<<<<<<<<<<<<<<<<<<<<<<<<<<<<<<<<<<<<<<<<<<<<<<<<<<<<<<<<

 ROMS/TOMS - Output NetCDF summary for Grid 01:
             number of time records written in AVERAGE file = 360

 Analytical header files used:

     /scratch/user/dylan.schlichting/COAWST/Projects/shelfstrat/project/Functionals/ana_btflux.h
     /scratch/user/dylan.schlichting/COAWST/Projects/shelfstrat/project/Functionals/ana_fsobc.h
     /scratch/user/dylan.schlichting/COAWST/Projects/shelfstrat/project/Functionals/ana_m2clima.h
     /scratch/user/dylan.schlichting/COAWST/Projects/shelfstrat/project/Functionals/ana_m2obc.h
     /scratch/user/dylan.schlichting/COAWST/Projects/shelfstrat/project/Functionals/ana_m3clima.h
     /scratch/user/dylan.schlichting/COAWST/Projects/shelfstrat/project/Functionals/ana_nudgcoef.h
     /scratch/user/dylan.schlichting/COAWST/Projects/shelfstrat/project/Functionals/ana_passive.h
     /scratch/user/dylan.schlichting/COAWST/Projects/shelfstrat/project/Functionals/ana_stflux.h

 ROMS/TOMS: DONE... Thursday - August 31, 2023 -  2:33:18 PM
